data/Network_05R-10/scenario_1/case.raw
 0,    100, 33, 0, 0, 60.0 / Header line 1
Header line 2
Header line 3
  1001,'',   115, 1, 1, 1, 1, 1.0027512, 0.1725102, 1.1, 0.9, 1.1, 0.9
  1002,'',   115, 1, 1, 1, 1, 1.0487511, 1.1506054, 1.1, 0.9, 1.1, 0.9
  1003,'',   115, 1, 1, 1, 1, 1.019096, 13.870745, 1.1, 0.9, 1.1, 0.9
  1004,'',   230, 2, 1, 1, 1, 1.023329, 12.920226, 1.1, 0.9, 1.1, 0.9
  1005,'',   115, 1, 1, 1, 1, 1.0097704, 8.8023422, 1.1, 0.9, 1.1, 0.9
  1006,'',  13.8, 2, 1, 1, 1, 1.0031411, 9.6674468, 1.1, 0.9, 1.1, 0.9
  1007,'',   115, 1, 1, 1, 1, 1.0519015, 0.85830841, 1.1, 0.9, 1.1, 0.9
  1008,'',   115, 1, 1, 1, 1, 1.0220737, 12.413411, 1.1, 0.9, 1.1, 0.9
  1009,'',  13.8, 2, 1, 1, 1, 1.0118201, 13.807785, 1.1, 0.9, 1.1, 0.9
  1010,'',   115, 1, 1, 1, 1, 1.0521253, 2.0465601, 1.1, 0.9, 1.1, 0.9
  1011,'',    22, 2, 1, 1, 1, 1.0521253, 2.0465601, 1.1, 0.9, 1.1, 0.9
  1012,'',   115, 1, 1, 1, 1, 1.0246578, 1.5998339, 1.1, 0.9, 1.1, 0.9
  1013,'',   115, 1, 1, 1, 1, 1.0138087, 3.0026086, 1.1, 0.9, 1.1, 0.9
  1014,'',   115, 1, 1, 1, 1, 1.0137483, 6.4318898, 1.1, 0.9, 1.1, 0.9
  1015,'',   115, 1, 1, 1, 1, 1.0559224, 1.0539641, 1.1, 0.9, 1.1, 0.9
  1016,'',   115, 1, 1, 1, 1, 1.015, 9.4813442, 1.1, 0.9, 1.1, 0.9
  1017,'',   115, 1, 1, 1, 1, 1.0049438, 1.2802549, 1.1, 0.9, 1.1, 0.9
  1018,'',   115, 1, 1, 1, 1, 1.0075279, 2.1719858, 1.1, 0.9, 1.1, 0.9
  1019,'',   115, 1, 1, 1, 1, 1.015, 1.1659247, 1.1, 0.9, 1.1, 0.9
  1020,'',   115, 1, 1, 1, 1, 1.015, 9.1288057, 1.1, 0.9, 1.1, 0.9
  1021,'',  13.8, 2, 1, 1, 1, 1, 13.137424, 1.1, 0.9, 1.1, 0.9
  1022,'',   115, 1, 1, 1, 1, 1.0210519, 14.687299, 1.1, 0.9, 1.1, 0.9
  1023,'',  13.8, 2, 1, 1, 1, 1.01, 20.499707, 1.1, 0.9, 1.1, 0.9
  1024,'',   115, 1, 1, 1, 1, 1.0063366, 2.8853086, 1.1, 0.9, 1.1, 0.9
  1025,'',   115, 1, 1, 1, 1, 1.0176484, 9.9204753, 1.1, 0.9, 1.1, 0.9
  1026,'',  13.8, 2, 1, 1, 1, 1.03, 16.493019, 1.1, 0.9, 1.1, 0.9
  1027,'',   115, 1, 1, 1, 1, 1, 0.45604725, 1.1, 0.9, 1.1, 0.9
  1028,'',   115, 1, 1, 1, 1, 1.0241303, 14.241727, 1.1, 0.9, 1.1, 0.9
  1029,'',   115, 1, 1, 1, 1, 1.015, 0.69075698, 1.1, 0.9, 1.1, 0.9
  1030,'',   115, 1, 1, 1, 1, 1.0260151, 5.9983818, 1.1, 0.9, 1.1, 0.9
  1031,'',   115, 1, 1, 1, 1, 1.0342274, 1.4236834, 1.1, 0.9, 1.1, 0.9
  1032,'',   115, 1, 1, 1, 1, 1.0013292, 8.3120384, 1.1, 0.9, 1.1, 0.9
  1033,'',   230, 2, 1, 1, 1, 1.0155058, 3.4310954, 1.1, 0.9, 1.1, 0.9
  1034,'',   115, 1, 1, 1, 1, 1.00746, 10.312369, 1.1, 0.9, 1.1, 0.9
  1035,'',  13.8, 2, 1, 1, 1, 1, 12.764298, 1.1, 0.9, 1.1, 0.9
  1036,'',   115, 1, 1, 1, 1, 0.99849745, 9.7752018, 1.1, 0.9, 1.1, 0.9
  1037,'',   115, 1, 1, 1, 1, 1.0029209, 0.63360756, 1.1, 0.9, 1.1, 0.9
  1038,'',   115, 1, 1, 1, 1, 1.0136668, 11.223325, 1.1, 0.9, 1.1, 0.9
  1039,'',    22, 2, 1, 1, 1, 1, 12.285822, 1.1, 0.9, 1.1, 0.9
  1040,'',   115, 1, 1, 1, 1, 1.0069486, 2.1823124, 1.1, 0.9, 1.1, 0.9
  1041,'',   115, 1, 1, 1, 1, 1.0089908, 9.7098887, 1.1, 0.9, 1.1, 0.9
  1042,'',  13.8, 2, 1, 1, 1, 1.0089908, 9.7098887, 1.1, 0.9, 1.1, 0.9
  1043,'',  13.8, 2, 1, 1, 1, 1.0209795, 12.688333, 1.1, 0.9, 1.1, 0.9
  1044,'',   115, 1, 1, 1, 1, 1.0176062, 2.5449986, 1.1, 0.9, 1.1, 0.9
  1045,'',   115, 1, 1, 1, 1, 0.99712675, -0.2080077, 1.1, 0.9, 1.1, 0.9
  1046,'',   115, 1, 1, 1, 1, 1.0249779, 4.8506573, 1.1, 0.9, 1.1, 0.9
  1047,'',   115, 1, 1, 1, 1, 1.011031, 4.3406561, 1.1, 0.9, 1.1, 0.9
  1048,'',    18, 2, 1, 1, 1, 1.011031, 4.3406561, 1.1, 0.9, 1.1, 0.9
  1049,'',    18, 2, 1, 1, 1, 1.011031, 4.3406561, 1.1, 0.9, 1.1, 0.9
  1050,'',    18, 2, 1, 1, 1, 1.0028034, 5.8822126, 1.1, 0.9, 1.1, 0.9
  1051,'',    18, 2, 1, 1, 1, 1.0003388, 6.3438549, 1.1, 0.9, 1.1, 0.9
  1052,'',    18, 2, 1, 1, 1, 1.0047504, 5.6238511, 1.1, 0.9, 1.1, 0.9
  1053,'',   230, 2, 1, 1, 1, 1.0198769, 3.5109972, 1.1, 0.9, 1.1, 0.9
  1054,'',   115, 1, 1, 1, 1, 1.0024028, 5.1377774, 1.1, 0.9, 1.1, 0.9
  1055,'',   115, 1, 1, 1, 1, 1.0117486, 12.643437, 1.1, 0.9, 1.1, 0.9
  1056,'',   115, 1, 1, 1, 1, 1.015, 4.233069, 1.1, 0.9, 1.1, 0.9
  1057,'',    18, 2, 1, 1, 1, 1.015, 4.233069, 1.1, 0.9, 1.1, 0.9
  1058,'',   115, 1, 1, 1, 1, 1.0268813, 11.530783, 1.1, 0.9, 1.1, 0.9
  1059,'',    22, 2, 1, 1, 1, 1.0268813, 11.530783, 1.1, 0.9, 1.1, 0.9
  1060,'',    22, 2, 1, 1, 1, 1.0268813, 11.530783, 1.1, 0.9, 1.1, 0.9
  1061,'',   115, 1, 1, 1, 1, 1.0107065, 8.0637191, 1.1, 0.9, 1.1, 0.9
  1062,'',  13.8, 2, 1, 1, 1, 1.0107065, 8.0637191, 1.1, 0.9, 1.1, 0.9
  1063,'',  13.8, 2, 1, 1, 1, 1.0107065, 8.0637191, 1.1, 0.9, 1.1, 0.9
  1064,'',   115, 1, 1, 1, 1, 0.99649807, -0.52590726, 1.1, 0.9, 1.1, 0.9
  1065,'',   115, 1, 1, 1, 1, 1.0092278, 9.7682912, 1.1, 0.9, 1.1, 0.9
  1066,'',  13.8, 2, 1, 1, 1, 1, 15.313142, 1.1, 0.9, 1.1, 0.9
  1067,'',   115, 1, 1, 1, 1, 1.005855, 9.2743881, 1.1, 0.9, 1.1, 0.9
  1068,'',   115, 1, 1, 1, 1, 0.99341556, 8.7731519, 1.1, 0.9, 1.1, 0.9
  1069,'',   115, 1, 1, 1, 1, 1.0277174, 13.14673, 1.1, 0.9, 1.1, 0.9
  1070,'',  13.8, 2, 1, 1, 1, 1.04, 18.039307, 1.1, 0.9, 1.1, 0.9
  1071,'',   115, 1, 1, 1, 1, 1.0146321, 1.4657676, 1.1, 0.9, 1.1, 0.9
  1072,'',    18, 2, 1, 1, 1, 1.01, 4.2801558, 1.1, 0.9, 1.1, 0.9
  1073,'',    18, 2, 1, 1, 1, 1.01, 6.131011, 1.1, 0.9, 1.1, 0.9
  1074,'',    18, 2, 1, 1, 1, 1.01, 5.5473618, 1.1, 0.9, 1.1, 0.9
  1075,'',    18, 2, 1, 1, 1, 1.01, 4.7311878, 1.1, 0.9, 1.1, 0.9
  1076,'',    18, 2, 1, 1, 1, 1.0146321, 1.4657676, 1.1, 0.9, 1.1, 0.9
  1077,'',    18, 2, 1, 1, 1, 1.0146321, 1.4657676, 1.1, 0.9, 1.1, 0.9
  1078,'',    18, 2, 1, 1, 1, 1.01, 4.5708637, 1.1, 0.9, 1.1, 0.9
  1079,'',   500, 2, 1, 1, 1, 1.0593998, -1.3343047, 1.1, 0.9, 1.1, 0.9
  1080,'',    18, 2, 1, 1, 1, 1.01, 4.767255, 1.1, 0.9, 1.1, 0.9
  1081,'',   230, 2, 1, 1, 1, 1.0216586, 3.2233468, 1.1, 0.9, 1.1, 0.9
  1082,'',   115, 2, 1, 1, 1, 1.0206439, 14.443618, 1.1, 0.9, 1.1, 0.9
  1083,'',   115, 1, 1, 1, 1, 1.015, 9.2102626, 1.1, 0.9, 1.1, 0.9
  1084,'',   115, 2, 1, 1, 1, 1.021703, 7.7376181, 1.1, 0.9, 1.1, 0.9
  1085,'',   115, 1, 1, 1, 1, 1.0132353, 3.7177845, 1.1, 0.9, 1.1, 0.9
  1086,'',   115, 1, 1, 1, 1, 1.015, 1.9784389, 1.1, 0.9, 1.1, 0.9
  1087,'',   115, 1, 1, 1, 1, 1.0281786, 8.3753018, 1.1, 0.9, 1.1, 0.9
  1088,'',   115, 2, 1, 1, 1, 1, 11.877313, 1.1, 0.9, 1.1, 0.9
  1089,'',   115, 1, 1, 1, 1, 0.99257931, 8.7857683, 1.1, 0.9, 1.1, 0.9
  1090,'',   115, 2, 1, 1, 1, 1.02, 5.0219235, 1.1, 0.9, 1.1, 0.9
  1091,'',   161, 1, 1, 1, 1, 1.0318906, 9.6692581, 1.1, 0.9, 1.1, 0.9
  2001,'',   161, 1, 1, 1, 1, 1.0301227, -11.328833, 1.1, 0.9, 1.1, 0.9
  2002,'',   500, 1, 1, 1, 1, 1.0318153, -11.435845, 1.1, 0.9, 1.1, 0.9
  2003,'',   161, 1, 1, 1, 1, 1.0276301, -12.481232, 1.1, 0.9, 1.1, 0.9
  2004,'',  13.8, 2, 1, 1, 1, 1.0318153, -11.435845, 1.1, 0.9, 1.1, 0.9
  2005,'',  13.8, 2, 1, 1, 1, 1.0318153, -11.435845, 1.1, 0.9, 1.1, 0.9
  2006,'',  13.8, 2, 1, 1, 1, 1.0318153, -11.435845, 1.1, 0.9, 1.1, 0.9
  2007,'',   161, 1, 1, 1, 1, 1.028756, -11.133059, 1.1, 0.9, 1.1, 0.9
  2008,'',   161, 1, 1, 1, 1, 1.0390188, 11.912639, 1.1, 0.9, 1.1, 0.9
  2009,'',   161, 1, 1, 1, 1, 1.0318249, -2.5544228, 1.1, 0.9, 1.1, 0.9
  2010,'',   161, 1, 1, 1, 1, 1.0290419, 3.4009876, 1.1, 0.9, 1.1, 0.9
  2011,'',   500, 1, 1, 1, 1, 1.0521859, 12.641487, 1.1, 0.9, 1.1, 0.9
  2012,'',   161, 1, 1, 1, 1, 1.041187, 15.133478, 1.1, 0.9, 1.1, 0.9
  2013,'',    18, 2, 1, 1, 1, 1.0440235, 15.448712, 1.1, 0.9, 1.1, 0.9
  2014,'',   161, 1, 1, 1, 1, 1.0377846, 10.675799, 1.1, 0.9, 1.1, 0.9
  2015,'',   161, 1, 1, 1, 1, 1.0161606, -12.232546, 1.1, 0.9, 1.1, 0.9
  2016,'',   161, 1, 1, 1, 1, 1.0096769, -15.04693, 1.1, 0.9, 1.1, 0.9
  2017,'',   500, 1, 1, 1, 1, 1.0339078, 11.361762, 1.1, 0.9, 1.1, 0.9
  2018,'',   161, 1, 1, 1, 1, 1.0333572, 12.6482, 1.1, 0.9, 1.1, 0.9
  2019,'',    20, 2, 1, 1, 1, 1.0339078, 11.361762, 1.1, 0.9, 1.1, 0.9
  2020,'',   161, 1, 1, 1, 1, 1.0305909, -2.6252851, 1.1, 0.9, 1.1, 0.9
  2021,'',   500, 1, 1, 1, 1, 1.0321106, -9.8085514, 1.1, 0.9, 1.1, 0.9
  2022,'',   161, 1, 1, 1, 1, 1.0326493, -10.670601, 1.1, 0.9, 1.1, 0.9
  2023,'',  13.8, 2, 1, 1, 1, 1.0291477, -9.3407179, 1.1, 0.9, 1.1, 0.9
  2024,'',  13.8, 2, 1, 1, 1, 1.0278534, -9.1417737, 1.1, 0.9, 1.1, 0.9
  2025,'',   161, 1, 1, 1, 1, 1.0305267, -2.2691923, 1.1, 0.9, 1.1, 0.9
  2026,'',   161, 1, 1, 1, 1, 1.0421205, 13.953685, 1.1, 0.9, 1.1, 0.9
  2027,'',   161, 1, 1, 1, 1, 1.0318389, -11.5123, 1.1, 0.9, 1.1, 0.9
  2028,'',   161, 1, 1, 1, 1, 1.0272439, -3.8378886, 1.1, 0.9, 1.1, 0.9
  2029,'',   161, 1, 1, 1, 1, 1.0387486, 10.270122, 1.1, 0.9, 1.1, 0.9
  2030,'',   161, 1, 1, 1, 1, 1.0213504, -12.800693, 1.1, 0.9, 1.1, 0.9
  2031,'',   161, 1, 1, 1, 1, 1.0394648, 7.8540975, 1.1, 0.9, 1.1, 0.9
  2032,'',   161, 1, 1, 1, 1, 1.0297017, -10.882805, 1.1, 0.9, 1.1, 0.9
  2033,'',   161, 1, 1, 1, 1, 1.0223955, -13.244359, 1.1, 0.9, 1.1, 0.9
  2034,'',   161, 1, 1, 1, 1, 1.0110817, -14.871713, 1.1, 0.9, 1.1, 0.9
  2035,'',   161, 1, 1, 1, 1, 1.0374955, 6.1248649, 1.1, 0.9, 1.1, 0.9
  2036,'',   161, 1, 1, 1, 1, 1.0308473, -2.3855821, 1.1, 0.9, 1.1, 0.9
  2037,'',   161, 1, 1, 1, 1, 1.0163106, -12.471753, 1.1, 0.9, 1.1, 0.9
  2038,'',   161, 1, 1, 1, 1, 1.0267597, -12.677577, 1.1, 0.9, 1.1, 0.9
  2039,'',   161, 1, 1, 1, 1, 1.0190466, -10.841351, 1.1, 0.9, 1.1, 0.9
  2040,'',   161, 1, 1, 1, 1, 1.0336293, -11.025948, 1.1, 0.9, 1.1, 0.9
  2041,'',   161, 1, 1, 1, 1, 1.0433568, 17.624001, 1.1, 0.9, 1.1, 0.9
  2042,'',    18, 2, 1, 1, 1, 1.0345706, 20.945728, 1.1, 0.9, 1.1, 0.9
  2043,'',   161, 1, 1, 1, 1, 1.0104809, -14.959111, 1.1, 0.9, 1.1, 0.9
  2044,'',   161, 1, 1, 1, 1, 1.0185329, -13.026703, 1.1, 0.9, 1.1, 0.9
  2045,'',   161, 1, 1, 1, 1, 1.02964, -2.900312, 1.1, 0.9, 1.1, 0.9
  2046,'',   161, 1, 1, 1, 1, 1.0118243, -14.746099, 1.1, 0.9, 1.1, 0.9
  2047,'',   161, 1, 1, 1, 1, 1.0248364, -12.898716, 1.1, 0.9, 1.1, 0.9
  2048,'',   161, 1, 1, 1, 1, 1.0367707, 7.6535695, 1.1, 0.9, 1.1, 0.9
  2049,'',   161, 1, 1, 1, 1, 1.0275879, -0.011503018, 1.1, 0.9, 1.1, 0.9
  2050,'',   161, 1, 1, 1, 1, 1.0297109, -12.555716, 1.1, 0.9, 1.1, 0.9
  2051,'',   161, 1, 1, 1, 1, 1.0210092, -7.5534775, 1.1, 0.9, 1.1, 0.9
  2052,'',   161, 1, 1, 1, 1, 1.0386131, 13.165202, 1.1, 0.9, 1.1, 0.9
  2053,'',   161, 1, 1, 1, 1, 1.023399, -10.115211, 1.1, 0.9, 1.1, 0.9
  2054,'',   500, 1, 1, 1, 1, 1.0339261, -1.7199799, 1.1, 0.9, 1.1, 0.9
  2055,'',   161, 1, 1, 1, 1, 1.0324181, -2.1533269, 1.1, 0.9, 1.1, 0.9
  2056,'',    18, 2, 1, 1, 1, 1.0339261, -1.7199799, 1.1, 0.9, 1.1, 0.9
  2057,'',    18, 2, 1, 1, 1, 1.0340276, -0.17116319, 1.1, 0.9, 1.1, 0.9
  2058,'',   161, 1, 1, 1, 1, 1.0437743, 17.8296, 1.1, 0.9, 1.1, 0.9
  2059,'',  13.8, 2, 1, 1, 1, 1.0337171, 19.587158, 1.1, 0.9, 1.1, 0.9
  2060,'',   161, 1, 1, 1, 1, 1.0285498, -11.984593, 1.1, 0.9, 1.1, 0.9
  2061,'',   161, 1, 1, 1, 1, 1.025618, 2.0834508, 1.1, 0.9, 1.1, 0.9
  2062,'',    18, 2, 1, 1, 1, 1.02, 3.1643909, 1.1, 0.9, 1.1, 0.9
  2063,'',   161, 1, 1, 1, 1, 1.0133566, -14.484959, 1.1, 0.9, 1.1, 0.9
  2064,'',   161, 1, 1, 1, 1, 1.0305191, -11.335745, 1.1, 0.9, 1.1, 0.9
  2065,'',   161, 1, 1, 1, 1, 1.014193, -13.121949, 1.1, 0.9, 1.1, 0.9
  2066,'',   161, 1, 1, 1, 1, 1.0371782, 7.5505859, 1.1, 0.9, 1.1, 0.9
  2067,'',   161, 1, 1, 1, 1, 1.029314, -2.2778971, 1.1, 0.9, 1.1, 0.9
  2068,'',   161, 1, 1, 1, 1, 1.030842, -1.4507992, 1.1, 0.9, 1.1, 0.9
  2069,'',   161, 1, 1, 1, 1, 1.015, -14.443533, 1.1, 0.9, 1.1, 0.9
  2070,'',   161, 1, 1, 1, 1, 1.0321675, -1.1669792, 1.1, 0.9, 1.1, 0.9
  2071,'',    18, 2, 1, 1, 1, 1.0223363, 1.2853065, 1.1, 0.9, 1.1, 0.9
  2072,'',   161, 1, 1, 1, 1, 1.0199421, -13.673806, 1.1, 0.9, 1.1, 0.9
  2073,'',   161, 1, 1, 1, 1, 1.036075, 8.796313, 1.1, 0.9, 1.1, 0.9
  2074,'',   115, 1, 1, 1, 1, 1.028074, 9.572825, 1.1, 0.9, 1.1, 0.9
  2075,'',   115, 1, 1, 1, 1, 1.028074, 9.572825, 1.1, 0.9, 1.1, 0.9
  2076,'',    24, 2, 1, 1, 1, 1.04, 9.2821766, 1.1, 0.9, 1.1, 0.9
  2077,'',   161, 1, 1, 1, 1, 1.018459, -11.768308, 1.1, 0.9, 1.1, 0.9
  2078,'',  13.8, 2, 1, 1, 1, 1.02, -11.766796, 1.1, 0.9, 1.1, 0.9
  2079,'',   161, 1, 1, 1, 1, 1.0337345, 5.059534, 1.1, 0.9, 1.1, 0.9
  2080,'',   161, 1, 1, 1, 1, 1.0198464, -9.3902498, 1.1, 0.9, 1.1, 0.9
  2081,'',   161, 1, 1, 1, 1, 1.0248834, -13.002109, 1.1, 0.9, 1.1, 0.9
  2082,'',   161, 1, 1, 1, 1, 1.0302209, -2.5259907, 1.1, 0.9, 1.1, 0.9
  2083,'',    20, 2, 1, 1, 1, 1.0335594, -2.0630394, 1.1, 0.9, 1.1, 0.9
  2084,'',    20, 2, 1, 1, 1, 1.0302209, -2.5259907, 1.1, 0.9, 1.1, 0.9
  2085,'',    20, 2, 1, 1, 1, 1.0302209, -2.5259907, 1.1, 0.9, 1.1, 0.9
  2086,'',   161, 1, 1, 1, 1, 1.0196651, -10.299763, 1.1, 0.9, 1.1, 0.9
  2087,'',   161, 1, 1, 1, 1, 1.0387147, 8.2302248, 1.1, 0.9, 1.1, 0.9
  2088,'',   161, 1, 1, 1, 1, 1.0310389, -1.3248348, 1.1, 0.9, 1.1, 0.9
  2089,'',    24, 2, 1, 1, 1, 1.0221211, -0.84247281, 1.1, 0.9, 1.1, 0.9
  2090,'',   161, 1, 1, 1, 1, 1.0336347, -11.747826, 1.1, 0.9, 1.1, 0.9
  2091,'',   161, 1, 1, 1, 1, 1.0343511, 4.4896619, 1.1, 0.9, 1.1, 0.9
  2092,'',   161, 1, 1, 1, 1, 1.0187125, -13.733176, 1.1, 0.9, 1.1, 0.9
  2093,'',   161, 1, 1, 1, 1, 1.0378302, 13.964248, 1.1, 0.9, 1.1, 0.9
  2094,'',  13.8, 2, 1, 1, 1, 1.0378302, 13.964248, 1.1, 0.9, 1.1, 0.9
  2095,'',  13.8, 2, 1, 1, 1, 1.0378302, 13.964248, 1.1, 0.9, 1.1, 0.9
  2096,'',   500, 1, 1, 1, 1, 1, 13.123324, 1.1, 0.9, 1.1, 0.9
  2097,'',   230, 1, 1, 1, 1, 1.0046912, 12.973321, 1.1, 0.9, 1.1, 0.9
  2098,'',   161, 1, 1, 1, 1, 1.0291559, 10.217177, 1.1, 0.9, 1.1, 0.9
  2099,'',    18, 2, 1, 1, 1, 1.0007488, 13.28421, 1.1, 0.9, 1.1, 0.9
  2100,'',    18, 2, 1, 1, 1, 1.0129849, 16.009392, 1.1, 0.9, 1.1, 0.9
  2101,'',   500, 1, 1, 1, 1, 1.0309511, -11.748487, 1.1, 0.9, 1.1, 0.9
  2102,'',   161, 1, 1, 1, 1, 1.0279055, -12.384833, 1.1, 0.9, 1.1, 0.9
  2103,'',    20, 2, 1, 1, 1, 1.0309511, -11.748487, 1.1, 0.9, 1.1, 0.9
  2104,'',    20, 2, 1, 1, 1, 1.0309511, -11.748487, 1.1, 0.9, 1.1, 0.9
  2105,'',    20, 2, 1, 1, 1, 1.0309511, -11.748487, 1.1, 0.9, 1.1, 0.9
  2106,'',   161, 1, 1, 1, 1, 1.0198865, -13.457827, 1.1, 0.9, 1.1, 0.9
  2107,'',   161, 1, 1, 1, 1, 1.0252834, -12.737001, 1.1, 0.9, 1.1, 0.9
  2108,'',   161, 1, 1, 1, 1, 1.0448394, -2.4090824, 1.1, 0.9, 1.1, 0.9
  2109,'',   161, 1, 1, 1, 1, 1.0285338, -3.2461345, 1.1, 0.9, 1.1, 0.9
...
0 / END OF BUS DATA, BEGIN LOAD DATA
1001, '1', 1, 1, 1, 14.442, 4.092, 0, 0, 0, 0, 1, 1, 0
1002, '1', 1, 1, 1, 10.712, 3.035, 0, 0, 0, 0, 1, 1, 0
1007, '1', 1, 1, 1, 4.87, 1.38, 0, 0, 0, 0, 1, 1, 0
1012, '1', 1, 1, 1, 2.075, 0.588, 0, 0, 0, 0, 1, 1, 0
1013, '1', 1, 1, 1, 20.311, 5.755, 0, 0, 0, 0, 1, 1, 0
1014, '1', 1, 1, 1, 1.543, 0.437, 0, 0, 0, 0, 1, 1, 0
1015, '1', 1, 1, 1, 5.219, 1.479, 0, 0, 0, 0, 1, 1, 0
1016, '1', 1, 1, 1, 2.008, 0.569, 0, 0, 0, 0, 1, 1, 0
1017, '1', 1, 1, 1, 12.749, 3.612, 0, 0, 0, 0, 1, 1, 0
1018, '1', 1, 1, 1, 0.048, 0.014, 0, 0, 0, 0, 1, 1, 0
1019, '1', 1, 1, 1, 42.933, 12.164, 0, 0, 0, 0, 1, 1, 0
1024, '1', 1, 1, 1, 43.811, 12.413, 0, 0, 0, 0, 1, 1, 0
1027, '1', 1, 1, 1, 70.34, 19.93, 0, 0, 0, 0, 1, 1, 0
1028, '1', 1, 1, 1, 6.959, 1.972, 0, 0, 0, 0, 1, 1, 0
1029, '1', 1, 1, 1, 57.811, 16.38, 0, 0, 0, 0, 1, 1, 0
1030, '1', 1, 1, 1, 17.116, 4.849, 0, 0, 0, 0, 1, 1, 0
1031, '1', 1, 1, 1, 6.426, 1.821, 0, 0, 0, 0, 1, 1, 0
1036, '1', 1, 1, 1, 9.449, 2.677, 0, 0, 0, 0, 1, 1, 0
1037, '1', 1, 1, 1, 71.053, 20.132, 0, 0, 0, 0, 1, 1, 0
1040, '1', 1, 1, 1, 30.828, 8.735, 0, 0, 0, 0, 1, 1, 0
1044, '1', 1, 1, 1, 10.204, 2.891, 0, 0, 0, 0, 1, 1, 0
1045, '1', 1, 1, 1, 68.499, 19.408, 0, 0, 0, 0, 1, 1, 0
1046, '1', 1, 1, 1, 7.704, 2.183, 0, 0, 0, 0, 1, 1, 0
1054, '1', 1, 1, 1, 10.416, 2.951, 0, 0, 0, 0, 1, 1, 0
1055, '1', 1, 1, 1, 2.765, 0.783, 0, 0, 0, 0, 1, 1, 0
1058, '1', 1, 1, 1, 9.351, 2.65, 0, 0, 0, 0, 1, 1, 0
1064, '1', 1, 1, 1, 86.011, 24.37, 0, 0, 0, 0, 1, 1, 0
1067, '1', 1, 1, 1, 70.575, 19.996, 0, 0, 0, 0, 1, 1, 0
1068, '1', 1, 1, 1, 41.284, 11.697, 0, 0, 0, 0, 1, 1, 0
1071, '1', 1, 1, 1, 63.566, 18.01, 0, 0, 0, 0, 1, 1, 0
1083, '1', 1, 1, 1, 27.761, 7.866, 0, 0, 0, 0, 1, 1, 0
1085, '1', 1, 1, 1, 14.801, 4.193, 0, 0, 0, 0, 1, 1, 0
1086, '1', 1, 1, 1, 27.571, 7.812, 0, 0, 0, 0, 1, 1, 0
1087, '1', 1, 1, 1, 0.632, 0.179, 0, 0, 0, 0, 1, 1, 0
1089, '1', 1, 1, 1, 28.22, 7.996, 0, 0, 0, 0, 1, 1, 0
1091, '1', 1, 1, 1, 8.077, 2.288, 0, 0, 0, 0, 1, 1, 0
2001, '1', 1, 1, 1, 25.941, 7.35, 0, 0, 0, 0, 1, 1, 0
2007, '1', 1, 1, 1, 5.118, 1.45, 0, 0, 0, 0, 1, 1, 0
2008, '1', 1, 1, 1, 4.324, 1.225, 0, 0, 0, 0, 1, 1, 0
2009, '1', 1, 1, 1, 20.994, 5.948, 0, 0, 0, 0, 1, 1, 0
2010, '1', 1, 1, 1, 30.473, 8.634, 0, 0, 0, 0, 1, 1, 0
2014, '1', 1, 1, 1, 13.641, 3.865, 0, 0, 0, 0, 1, 1, 0
2015, '1', 1, 1, 1, 2.514, 0.712, 0, 0, 0, 0, 1, 1, 0
2016, '1', 1, 1, 1, 37.159, 10.528, 0, 0, 0, 0, 1, 1, 0
2020, '1', 1, 1, 1, 25.735, 7.292, 0, 0, 0, 0, 1, 1, 0
2022, '1', 1, 1, 1, 6.204, 1.758, 0, 0, 0, 0, 1, 1, 0
2025, '1', 1, 1, 1, 21.253, 6.022, 0, 0, 0, 0, 1, 1, 0
2026, '1', 1, 1, 1, 9.962, 2.823, 0, 0, 0, 0, 1, 1, 0
2027, '1', 1, 1, 1, 1.907, 0.54, 0, 0, 0, 0, 1, 1, 0
2028, '1', 1, 1, 1, 7.638, 2.164, 0, 0, 0, 0, 1, 1, 0
2029, '1', 1, 1, 1, 1.717, 0.487, 0, 0, 0, 0, 1, 1, 0
2030, '1', 1, 1, 1, 25.292, 7.166, 0, 0, 0, 0, 1, 1, 0
2031, '1', 1, 1, 1, 3.093, 0.876, 0, 0, 0, 0, 1, 1, 0
2032, '1', 1, 1, 1, 1.799, 0.51, 0, 0, 0, 0, 1, 1, 0
2033, '1', 1, 1, 1, 7.28, 2.063, 0, 0, 0, 0, 1, 1, 0
2034, '1', 1, 1, 1, 2.865, 0.812, 0, 0, 0, 0, 1, 1, 0
2035, '1', 1, 1, 1, 2.512, 0.712, 0, 0, 0, 0, 1, 1, 0
2036, '1', 1, 1, 1, 22.309, 6.321, 0, 0, 0, 0, 1, 1, 0
2037, '1', 1, 1, 1, 1.878, 0.532, 0, 0, 0, 0, 1, 1, 0
2038, '1', 1, 1, 1, 1.397, 0.396, 0, 0, 0, 0, 1, 1, 0
2039, '1', 1, 1, 1, 2.982, 0.845, 0, 0, 0, 0, 1, 1, 0
2040, '1', 1, 1, 1, 8.531, 2.417, 0, 0, 0, 0, 1, 1, 0
2043, '1', 1, 1, 1, 2.272, 0.644, 0, 0, 0, 0, 1, 1, 0
2044, '1', 1, 1, 1, 14.702, 4.165, 0, 0, 0, 0, 1, 1, 0
2045, '1', 1, 1, 1, 12.127, 3.436, 0, 0, 0, 0, 1, 1, 0
2046, '1', 1, 1, 1, 11.874, 3.364, 0, 0, 0, 0, 1, 1, 0
2047, '1', 1, 1, 1, 8.023, 2.273, 0, 0, 0, 0, 1, 1, 0
2048, '1', 1, 1, 1, 3.442, 0.975, 0, 0, 0, 0, 1, 1, 0
2049, '1', 1, 1, 1, 6.208, 1.759, 0, 0, 0, 0, 1, 1, 0
2050, '1', 1, 1, 1, 1.962, 0.556, 0, 0, 0, 0, 1, 1, 0
2051, '1', 1, 1, 1, 9.576, 2.713, 0, 0, 0, 0, 1, 1, 0
2052, '1', 1, 1, 1, 13.324, 3.775, 0, 0, 0, 0, 1, 1, 0
2053, '1', 1, 1, 1, 15.629, 4.428, 0, 0, 0, 0, 1, 1, 0
2055, '1', 1, 1, 1, 26.619, 7.542, 0, 0, 0, 0, 1, 1, 0
2060, '1', 1, 1, 1, 2.036, 0.577, 0, 0, 0, 0, 1, 1, 0
2063, '1', 1, 1, 1, 35.2, 9.973, 0, 0, 0, 0, 1, 1, 0
2064, '1', 1, 1, 1, 5.39, 1.527, 0, 0, 0, 0, 1, 1, 0
2065, '1', 1, 1, 1, 42.037, 11.91, 0, 0, 0, 0, 1, 1, 0
2066, '1', 1, 1, 1, 3.816, 1.081, 0, 0, 0, 0, 1, 1, 0
2067, '1', 1, 1, 1, 28.951, 8.203, 0, 0, 0, 0, 1, 1, 0
2068, '1', 1, 1, 1, 3.09, 0.875, 0, 0, 0, 0, 1, 1, 0
2069, '1', 1, 1, 1, 11.761, 3.332, 0, 0, 0, 0, 1, 1, 0
2072, '1', 1, 1, 1, 5.206, 1.475, 0, 0, 0, 0, 1, 1, 0
2079, '1', 1, 1, 1, 2.403, 0.681, 0, 0, 0, 0, 1, 1, 0
2080, '1', 1, 1, 1, 9.083, 2.574, 0, 0, 0, 0, 1, 1, 0
2081, '1', 1, 1, 1, 2.395, 0.679, 0, 0, 0, 0, 1, 1, 0
2082, '1', 1, 1, 1, 31.667, 8.972, 0, 0, 0, 0, 1, 1, 0
2086, '1', 1, 1, 1, 1.176, 0.333, 0, 0, 0, 0, 1, 1, 0
2087, '1', 1, 1, 1, 4.236, 1.2, 0, 0, 0, 0, 1, 1, 0
2090, '1', 1, 1, 1, 1.3, 0.368, 0, 0, 0, 0, 1, 1, 0
2091, '1', 1, 1, 1, 9.144, 2.591, 0, 0, 0, 0, 1, 1, 0
2092, '1', 1, 1, 1, 12.933, 3.664, 0, 0, 0, 0, 1, 1, 0
2106, '1', 1, 1, 1, 7.727, 2.189, 0, 0, 0, 0, 1, 1, 0
2107, '1', 1, 1, 1, 39.779, 11.271, 0, 0, 0, 0, 1, 1, 0
2108, '1', 1, 1, 1, 1.151, 0.326, 0, 0, 0, 0, 1, 1, 0
2109, '1', 1, 1, 1, 18.138, 5.139, 0, 0, 0, 0, 1, 1, 0
2110, '1', 1, 1, 1, 4.608, 1.305, 0, 0, 0, 0, 1, 1, 0
2111, '1', 1, 1, 1, 7.485, 2.121, 0, 0, 0, 0, 1, 1, 0
2112, '1', 1, 1, 1, 2.437, 0.69, 0, 0, 0, 0, 1, 1, 0
2114, '1', 1, 1, 1, 37.968, 10.758, 0, 0, 0, 0, 1, 1, 0
2121, '1', 1, 1, 1, 1.252, 0.355, 0, 0, 0, 0, 1, 1, 0
2122, '1', 1, 1, 1, 3.607, 1.022, 0, 0, 0, 0, 1, 1, 0
2124, '1', 1, 1, 1, 11.418, 3.235, 0, 0, 0, 0, 1, 1, 0
2125, '1', 1, 1, 1, 2.176, 0.616, 0, 0, 0, 0, 1, 1, 0
2126, '1', 1, 1, 1, 7.636, 2.164, 0, 0, 0, 0, 1, 1, 0
2129, '1', 1, 1, 1, 3.558, 1.008, 0, 0, 0, 0, 1, 1, 0
2132, '1', 1, 1, 1, 6.405, 1.815, 0, 0, 0, 0, 1, 1, 0
2133, '1', 1, 1, 1, 3.047, 0.863, 0, 0, 0, 0, 1, 1, 0
3002, '1', 1, 1, 1, 63.41, 17.966, 0, 0, 0, 0, 1, 1, 0
3005, '1', 1, 1, 1, 4.125, 1.168, 0, 0, 0, 0, 1, 1, 0
3006, '1', 1, 1, 1, 4.128, 1.17, 0, 0, 0, 0, 1, 1, 0
3007, '1', 1, 1, 1, 8.407, 2.382, 0, 0, 0, 0, 1, 1, 0
3008, '1', 1, 1, 1, 11.13, 3.153, 0, 0, 0, 0, 1, 1, 0
3009, '1', 1, 1, 1, 7.046, 1.996, 0, 0, 0, 0, 1, 1, 0
3010, '1', 1, 1, 1, 2.624, 0.744, 0, 0, 0, 0, 1, 1, 0
3011, '1', 1, 1, 1, 15.247, 4.321, 0, 0, 0, 0, 1, 1, 0
3012, '1', 1, 1, 1, 0.317, 0.09, 0, 0, 0, 0, 1, 1, 0
3013, '1', 1, 1, 1, 36.271, 10.277, 0, 0, 0, 0, 1, 1, 0
3014, '1', 1, 1, 1, 12.362, 3.502, 0, 0, 0, 0, 1, 1, 0
3015, '1', 1, 1, 1, 3.014, 0.854, 0, 0, 0, 0, 1, 1, 0
3021, '1', 1, 1, 1, 1.091, 0.309, 0, 0, 0, 0, 1, 1, 0
3022, '1', 1, 1, 1, 13.816, 3.915, 0, 0, 0, 0, 1, 1, 0
3023, '1', 1, 1, 1, 5.847, 1.657, 0, 0, 0, 0, 1, 1, 0
3024, '1', 1, 1, 1, 5.692, 1.613, 0, 0, 0, 0, 1, 1, 0
3025, '1', 1, 1, 1, 7.683, 2.177, 0, 0, 0, 0, 1, 1, 0
3029, '1', 1, 1, 1, 2.734, 0.775, 0, 0, 0, 0, 1, 1, 0
3030, '1', 1, 1, 1, 72.882, 20.65, 0, 0, 0, 0, 1, 1, 0
3031, '1', 1, 1, 1, 8.278, 2.345, 0, 0, 0, 0, 1, 1, 0
3032, '1', 1, 1, 1, 40.938, 11.599, 0, 0, 0, 0, 1, 1, 0
3035, '1', 1, 1, 1, 1.947, 0.552, 0, 0, 0, 0, 1, 1, 0
3036, '1', 1, 1, 1, 3.26, 0.924, 0, 0, 0, 0, 1, 1, 0
3040, '1', 1, 1, 1, 8.207, 2.325, 0, 0, 0, 0, 1, 1, 0
3042, '1', 1, 1, 1, 4.918, 1.393, 0, 0, 0, 0, 1, 1, 0
3049, '1', 1, 1, 1, 5.947, 1.685, 0, 0, 0, 0, 1, 1, 0
3051, '1', 1, 1, 1, 81.631, 23.128, 0, 0, 0, 0, 1, 1, 0
3052, '1', 1, 1, 1, 4.537, 1.286, 0, 0, 0, 0, 1, 1, 0
3066, '1', 1, 1, 1, 12.38, 3.508, 0, 0, 0, 0, 1, 1, 0
3069, '1', 1, 1, 1, 2.142, 0.607, 0, 0, 0, 0, 1, 1, 0
3072, '1', 1, 1, 1, 3.363, 0.953, 0, 0, 0, 0, 1, 1, 0
3075, '1', 1, 1, 1, 6.845, 1.939, 0, 0, 0, 0, 1, 1, 0
3076, '1', 1, 1, 1, 6.065, 1.718, 0, 0, 0, 0, 1, 1, 0
3077, '1', 1, 1, 1, 38.573, 10.929, 0, 0, 0, 0, 1, 1, 0
3093, '1', 1, 1, 1, 2.835, 0.803, 0, 0, 0, 0, 1, 1, 0
3099, '1', 1, 1, 1, 6.786, 1.923, 0, 0, 0, 0, 1, 1, 0
3100, '1', 1, 1, 1, 4.79, 1.357, 0, 0, 0, 0, 1, 1, 0
3101, '1', 1, 1, 1, 5.299, 1.502, 0, 0, 0, 0, 1, 1, 0
3102, '1', 1, 1, 1, 42.282, 11.98, 0, 0, 0, 0, 1, 1, 0
3103, '1', 1, 1, 1, 22.09, 6.259, 0, 0, 0, 0, 1, 1, 0
3107, '1', 1, 1, 1, 8.353, 2.367, 0, 0, 0, 0, 1, 1, 0
3108, '1', 1, 1, 1, 13.216, 3.745, 0, 0, 0, 0, 1, 1, 0
3114, '1', 1, 1, 1, 55.233, 15.649, 0, 0, 0, 0, 1, 1, 0
3115, '1', 1, 1, 1, 5.38, 1.524, 0, 0, 0, 0, 1, 1, 0
3123, '1', 1, 1, 1, 37.119, 10.517, 0, 0, 0, 0, 1, 1, 0
3124, '1', 1, 1, 1, 36.261, 10.274, 0, 0, 0, 0, 1, 1, 0
3125, '1', 1, 1, 1, 51.272, 14.527, 0, 0, 0, 0, 1, 1, 0
3126, '1', 1, 1, 1, 5.594, 1.585, 0, 0, 0, 0, 1, 1, 0
3128, '1', 1, 1, 1, 1.584, 0.449, 0, 0, 0, 0, 1, 1, 0
3130, '1', 1, 1, 1, 51.777, 14.67, 0, 0, 0, 0, 1, 1, 0
3132, '1', 1, 1, 1, 5.373, 1.522, 0, 0, 0, 0, 1, 1, 0
3136, '1', 1, 1, 1, 26.382, 7.475, 0, 0, 0, 0, 1, 1, 0
3138, '1', 1, 1, 1, 6.151, 1.743, 0, 0, 0, 0, 1, 1, 0
3139, '1', 1, 1, 1, 8.38, 2.374, 0, 0, 0, 0, 1, 1, 0
3140, '1', 1, 1, 1, 0.125, 0.035, 0, 0, 0, 0, 1, 1, 0
3142, '1', 1, 1, 1, 3.971, 1.125, 0, 0, 0, 0, 1, 1, 0
3143, '1', 1, 1, 1, 3.233, 0.916, 0, 0, 0, 0, 1, 1, 0
3144, '1', 1, 1, 1, 3.122, 0.885, 0, 0, 0, 0, 1, 1, 0
3145, '1', 1, 1, 1, 1.652, 0.468, 0, 0, 0, 0, 1, 1, 0
3146, '1', 1, 1, 1, 6.763, 1.916, 0, 0, 0, 0, 1, 1, 0
3147, '1', 1, 1, 1, 19.529, 5.533, 0, 0, 0, 0, 1, 1, 0
4002, '1', 1, 1, 1, 0.657, 0.186, 0, 0, 0, 0, 1, 1, 0
4003, '1', 1, 1, 1, 82.943, 23.5, 0, 0, 0, 0, 1, 1, 0
4005, '1', 1, 1, 1, 106.951, 30.303, 0, 0, 0, 0, 1, 1, 0
4006, '1', 1, 1, 1, 1.795, 0.509, 0, 0, 0, 0, 1, 1, 0
4007, '1', 1, 1, 1, 119.669, 33.906, 0, 0, 0, 0, 1, 1, 0
4008, '1', 1, 1, 1, 21.172, 5.999, 0, 0, 0, 0, 1, 1, 0
4011, '1', 1, 1, 1, 10.458, 2.963, 0, 0, 0, 0, 1, 1, 0
4012, '1', 1, 1, 1, 8.953, 2.537, 0, 0, 0, 0, 1, 1, 0
4013, '1', 1, 1, 1, 60.173, 17.049, 0, 0, 0, 0, 1, 1, 0
4015, '1', 1, 1, 1, 104.128, 29.503, 0, 0, 0, 0, 1, 1, 0
4016, '1', 1, 1, 1, 4.07, 1.153, 0, 0, 0, 0, 1, 1, 0
4017, '1', 1, 1, 1, 58.358, 16.535, 0, 0, 0, 0, 1, 1, 0
4018, '1', 1, 1, 1, 4.65, 1.318, 0, 0, 0, 0, 1, 1, 0
4019, '1', 1, 1, 1, 88.504, 25.076, 0, 0, 0, 0, 1, 1, 0
4020, '1', 1, 1, 1, 76.766, 21.75, 0, 0, 0, 0, 1, 1, 0
4021, '1', 1, 1, 1, 20.832, 5.902, 0, 0, 0, 0, 1, 1, 0
4022, '1', 1, 1, 1, 3.626, 1.027, 0, 0, 0, 0, 1, 1, 0
4023, '1', 1, 1, 1, 3.3, 0.935, 0, 0, 0, 0, 1, 1, 0
4027, '1', 1, 1, 1, 42.43, 12.022, 0, 0, 0, 0, 1, 1, 0
4031, '1', 1, 1, 1, 1.791, 0.507, 0, 0, 0, 0, 1, 1, 0
4032, '1', 1, 1, 1, 59.548, 16.872, 0, 0, 0, 0, 1, 1, 0
4033, '1', 1, 1, 1, 82.262, 23.308, 0, 0, 0, 0, 1, 1, 0
4034, '1', 1, 1, 1, 24.526, 6.949, 0, 0, 0, 0, 1, 1, 0
4035, '1', 1, 1, 1, 51.58, 14.614, 0, 0, 0, 0, 1, 1, 0
4036, '1', 1, 1, 1, 22.851, 6.475, 0, 0, 0, 0, 1, 1, 0
4037, '1', 1, 1, 1, 18.715, 5.303, 0, 0, 0, 0, 1, 1, 0
4038, '1', 1, 1, 1, 54.28, 15.379, 0, 0, 0, 0, 1, 1, 0
4040, '1', 1, 1, 1, 147.039, 41.661, 0, 0, 0, 0, 1, 1, 0
4042, '1', 1, 1, 1, 140.208, 39.726, 0, 0, 0, 0, 1, 1, 0
4043, '1', 1, 1, 1, 1.613, 0.457, 0, 0, 0, 0, 1, 1, 0
4048, '1', 1, 1, 1, 8.538, 2.419, 0, 0, 0, 0, 1, 1, 0
...
0 / END OF LOAD DATA, BEGIN FIXED SHUNT DATA
0 / END OF FIXED SHUNT DATA, BEGIN GENERATOR DATA
1004, '1', 88.3, -30.38, 44.94, -30.38, 1.023329, 0, 0, 0, 1.0, 0, 0, 1, 1, 1, 88.3, 0, 1, 1, 0, 1, 0, 1, 0, 1, 0, 1
1006, '1', 10.2, -4.94, 7.31, -4.94, 1.0031411, 0, 0, 0, 1.0, 0, 0, 1, 1, 1, 10.2, 0, 1, 1, 0, 1, 0, 1, 0, 1, 0, 1
1009, '1', 26, -11.88, 17.57, -11.88, 1.0099562, 0, 0, 0, 1.0, 0, 0, 1, 1, 1, 26, 0, 1, 1, 0, 1, 0, 1, 0, 1, 0, 1
1011, '1', 0, 0, 0, 0, 1.0521253, 0, 0, 0, 1.0, 0, 0, 1, 1, 1, 0, 0, 1, 1, 0, 1, 0, 1, 0, 1, 0, 1
1021, '1', 90, -28.73, 42.49, -28.73, 1, 0, 0, 0, 1.0, 0, 0, 1, 1, 1, 90, 0, 1, 1, 0, 1, 0, 1, 0, 1, 0, 1
1023, '1', 88.6, -25.92, 38.34, -25.92, 1.01, 0, 0, 0, 1.0, 0, 0, 1, 1, 1, 88.6, 0, 1, 1, 0, 1, 0, 1, 0, 1, 0, 1
1026, '1', 66.7, -17.88, 26.45, -17.88, 1.03, 0, 0, 0, 1.0, 0, 0, 1, 1, 1, 66.7, 0, 1, 1, 0, 1, 0, 1, 0, 1, 0, 1
1033, '1', 0.3, -40.03, 59.21, -40.03, 1.0155058, 0, 0, 0, 1.0, 0, 0, 1, 1, 1, 0.3, 0, 1, 1, 0, 1, 0, 1, 0, 1, 0, 1
1035, '1', 50.2, -12.96, 19.17, -12.96, 1, 0, 0, 0, 1.0, 0, 0, 1, 1, 1, 50.2, 0, 1, 1, 0, 1, 0, 1, 0, 1, 0, 1
1039, '1', 21.5, -21.24, 31.42, -21.24, 1, 0, 0, 0, 1.0, 0, 0, 1, 1, 1, 21.5, 0, 1, 1, 0, 1, 0, 1, 0, 1, 0, 1
1042, '1', 86.869, 25.96, 25.96, -17.55, 1.0091699, 0, 0, 0, 1.0, 0, 0, 1, 0, 1, 86.9, 0, 1, 1, 0, 1, 0, 1, 0, 1, 0, 1
1043, '1', 41.9, -8.47, 12.52, -8.47, 1.0209795, 0, 0, 0, 1.0, 0, 0, 1, 1, 1, 41.9, 0, 1, 1, 0, 1, 0, 1, 0, 1, 0, 1
1048, '1', 107.593, -9.675, 165.53, -36.1, 1.0103816, 0, 0, 0, 1.0, 0, 0, 1, 0, 1, 325.2, 97.56, 1, 1, 0, 1, 0, 1, 0, 1, 0, 1
1049, '1', 131.489, 0.351, 165.53, -36.1, 1.0103816, 0, 0, 0, 1.0, 0, 0, 1, 0, 1, 325.2, 97.56, 1, 1, 0, 1, 0, 1, 0, 1, 0, 1
1050, '1', 27.160249, -9.92, 45.5, -9.92, 1.0028034, 0, 0, 0, 1.0, 0, 0, 1, 1, 1, 89.4, 26.82, 1, 1, 0, 1, 0, 1, 0, 1, 0, 1
1051, '1', 27.160249, -9.92, 45.5, -9.92, 1.0003388, 0, 0, 0, 1.0, 0, 0, 1, 1, 1, 89.4, 26.82, 1, 1, 0, 1, 0, 1, 0, 1, 0, 1
1052, '1', 27.160249, -9.92, 45.5, -9.92, 1.0047504, 0, 0, 0, 1.0, 0, 0, 1, 1, 1, 89.4, 26.82, 1, 1, 0, 1, 0, 1, 0, 1, 0, 1
1053, '1', 178.755, -19.85, 91.01, -19.85, 1.0198703, 0, 0, 0, 1.0, 0, 0, 1, 0, 1, 178.8, 53.64, 1, 1, 0, 1, 0, 1, 0, 1, 0, 1
1057, '1', 40.97, 3.963, 25.56, -17.28, 1.015, 0, 0, 0, 1.0, 0, 0, 1, 0, 1, 41, 0, 1, 1, 0, 1, 0, 1, 0, 1, 0, 1
1059, '1', 0, 2.85, 2.85, -0.62, 1.0262414, 0, 0, 0, 1.0, 0, 0, 1, 0, 1, 5.6, 1.68, 1, 1, 0, 1, 0, 1, 0, 1, 0, 1
1060, '1', 0, 1.02, 1.02, -0.22, 1.0262414, 0, 0, 0, 1.0, 0, 0, 1, 0, 1, 2, 0.6, 1, 1, 0, 1, 0, 1, 0, 1, 0, 1
1062, '1', 1.5, 0, 0, 0, 1.0109181, 0, 0, 0, 1.0, 0, 0, 1, 0, 1, 1.5, 0.45, 1, 1, 0, 1, 0, 1, 0, 1, 0, 1
1063, '1', 69, 0, 0, 0, 1.0109181, 0, 0, 0, 1.0, 0, 0, 1, 0, 1, 230, 69, 1, 1, 0, 1, 0, 1, 0, 1, 0, 1
1066, '1', 78.9, -20.52, 30.35, -20.52, 1, 0, 0, 0, 1.0, 0, 0, 1, 1, 1, 78.9, 0, 1, 1, 0, 1, 0, 1, 0, 1, 0, 1
1070, '1', 131, -23.11, 34.19, -23.11, 1.04, 0, 0, 0, 1.0, 0, 0, 1, 1, 1, 131, 0, 1, 1, 0, 1, 0, 1, 0, 1, 0, 1
1072, '1', 58.371231, -21.33, 97.8, -21.33, 1.01, 0, 0, 0, 1.0, 0, 0, 1, 1, 1, 192.13, 57.64, 1, 1, 0, 1, 0, 1, 0, 1, 0, 1
1073, '1', 58.371231, -21.33, 97.8, -21.33, 1.01, 0, 0, 0, 1.0, 0, 0, 1, 1, 1, 192.13, 57.64, 1, 1, 0, 1, 0, 1, 0, 1, 0, 1
1074, '1', 58.371231, -21.33, 97.8, -21.33, 1.01, 0, 0, 0, 1.0, 0, 0, 1, 1, 1, 192.13, 57.64, 1, 1, 0, 1, 0, 1, 0, 1, 0, 1
1075, '1', 58.371231, -21.33, 97.8, -21.33, 1.01, 0, 0, 0, 1.0, 0, 0, 1, 1, 1, 192.13, 57.64, 1, 1, 0, 1, 0, 1, 0, 1, 0, 1
1076, '1', 95.278, 29.129, 97.8, -21.33, 1.0136579, 0, 0, 0, 1.0, 0, 0, 1, 0, 1, 192.13, 57.64, 1, 1, 0, 1, 0, 1, 0, 1, 0, 1
1077, '1', 118.881, 21.47, 97.8, -21.33, 1.0136579, 0, 0, 0, 1.0, 0, 0, 1, 0, 1, 192.13, 57.64, 1, 1, 0, 1, 0, 1, 0, 1, 0, 1
1078, '1', 29.013465, -10.6, 48.61, -10.6, 1.01, 0, 0, 0, 1.0, 0, 0, 1, 1, 1, 95.5, 28.65, 1, 1, 0, 1, 0, 1, 0, 1, 0, 1
1079, '1', 29.013465, -10.6, 48.61, -10.6, 1.0590442, 0, 0, 0, 1.0, 0, 0, 1, 1, 1, 95.5, 28.65, 1, 1, 0, 1, 0, 1, 0, 1, 0, 1
1080, '1', 29.013465, -10.6, 48.61, -10.6, 1.01, 0, 0, 0, 1.0, 0, 0, 1, 1, 1, 95.5, 28.65, 1, 1, 0, 1, 0, 1, 0, 1, 0, 1
1081, '1', 115.841, 37.388, 145.83, -31.8, 1.0216586, 0, 0, 0, 1.0, 0, 0, 1, 0, 1, 286.5, 85.95, 1, 1, 0, 1, 0, 1, 0, 1, 0, 1
1082, '1', 137.3, -21.6, 31.95, -21.6, 1.017122, 0, 0, 0, 1.0, 0, 0, 1, 1, 1, 137.3, 0, 1, 1, 0, 1, 0, 1, 0, 1, 0, 1
1084, '1', 60.6, -16.63, 24.6, -16.63, 1.021703, 0, 0, 0, 1.0, 0, 0, 1, 1, 1, 60.6, 0, 1, 1, 0, 1, 0, 1, 0, 1, 0, 1
1088, '1', 62.1, -10.8, 15.97, -10.8, 1, 0, 0, 0, 1.0, 0, 0, 1, 1, 1, 62.1, 0, 1, 1, 0, 1, 0, 1, 0, 1, 0, 1
1090, '1', 96.2, -21.96, 32.48, -21.96, 1.02, 0, 0, 0, 1.0, 0, 0, 1, 1, 1, 96.2, 0, 1, 1, 0, 1, 0, 1, 0, 1, 0, 1
1090, '2', 22.7, -5.18, 7.67, -5.18, 1.02, 0, 0, 0, 1.0, 0, 0, 1, 1, 1, 22.7, 0, 1, 1, 0, 1, 0, 1, 0, 1, 0, 1
2004, '1', 117.54, -43.49, 199.43, -43.49, 1.0318063, 0, 0, 0, 1.0, 0, 0, 1, 0, 1, 391.8, 117.54, 1, 1, 0, 1, 0, 1, 0, 1, 0, 1
2005, '1', 117.54, -6.517, 199.43, -43.49, 1.0318063, 0, 0, 0, 1.0, 0, 0, 1, 0, 1, 391.8, 117.54, 1, 1, 0, 1, 0, 1, 0, 1, 0, 1
2006, '1', 129.628, -6.765, 199.43, -43.49, 1.0318063, 0, 0, 0, 1.0, 0, 0, 1, 0, 1, 391.8, 117.54, 1, 1, 0, 1, 0, 1, 0, 1, 0, 1
2013, '1', 185.3, -28.89, 42.73, -28.89, 1.0440235, 0, 0, 0, 1.0, 0, 0, 1, 1, 1, 185.3, 0, 1, 1, 0, 1, 0, 1, 0, 1, 0, 1
2019, '1', 215.945, -31.39, 46.43, -31.39, 1.0337449, 0, 0, 0, 1.0, 0, 0, 1, 0, 1, 216, 0, 1, 1, 0, 1, 0, 1, 0, 1, 0, 1
2023, '1', 25.317147, -9.25, 42.42, -9.25, 1.0291208, 0, 0, 0, 1.0, 0, 0, 1, 1, 1, 83.33, 25, 1, 1, 0, 1, 0, 1, 0, 1, 0, 1
2024, '1', 50.634332, -18.5, 84.83, -18.5, 1.0278267, 0, 0, 0, 1.0, 0, 0, 1, 1, 1, 166.67, 50, 1, 1, 0, 1, 0, 1, 0, 1, 0, 1
2042, '1', 79.4, -11.46, 16.95, -11.46, 1.0340991, 0, 0, 0, 1.0, 0, 0, 1, 1, 1, 79.4, 0, 1, 1, 0, 1, 0, 1, 0, 1, 0, 1
2056, '1', 5.998, -0.73, 2.8, -0.73, 1.035415, 0, 0, 0, 1.0, 0, 0, 1, 0, 1, 6, 1.8, 1, 1, 0, 1, 0, 1, 0, 1, 0, 1
2057, '1', 218.74026, -87.84, 335.52, -87.84, 1.0340276, 0, 0, 0, 1.0, 0, 0, 1, 1, 1, 720, 216, 1, 1, 0, 1, 0, 1, 0, 1, 0, 1
2059, '1', 32.2, -11.52, 17.04, -11.52, 1.033359, 0, 0, 0, 1.0, 0, 0, 1, 1, 1, 32.2, 0, 1, 1, 0, 1, 0, 1, 0, 1, 0, 1
2062, '1', 47.5, -19.5, 28.84, -19.5, 1.02, 0, 0, 0, 1.0, 0, 0, 1, 1, 1, 47.5, 0, 1, 1, 0, 1, 0, 1, 0, 1, 0, 1
2071, '1', 78.7, -21.6, 31.95, -21.6, 1.0223363, 0, 0, 0, 1.0, 0, 0, 1, 1, 1, 78.7, 0, 1, 1, 0, 1, 0, 1, 0, 1, 0, 1
2076, '1', 12.6, -4.32, 6.39, -4.32, 1.04, 0, 0, 0, 1.0, 0, 0, 1, 1, 1, 12.6, 0, 1, 1, 0, 1, 0, 1, 0, 1, 0, 1
2078, '1', 0.1, -16.2, 23.96, -16.2, 1.02, 0, 0, 0, 1.0, 0, 0, 1, 1, 1, 0.1, 0, 1, 1, 0, 1, 0, 1, 0, 1, 0, 1
2083, '1', 6.0761183, -2.22, 10.18, -2.22, 1.0335594, 0, 0, 0, 1.0, 0, 0, 1, 1, 1, 20, 6, 1, 1, 0, 1, 0, 1, 0, 1, 0, 1
2084, '1', 18.301, -2.22, 10.18, -2.22, 1.0312332, 0, 0, 0, 1.0, 0, 0, 1, 0, 1, 20, 6, 1, 1, 0, 1, 0, 1, 0, 1, 0, 1
2085, '1', 0, 20.36, 20.36, -4.44, 1.0312332, 0, 0, 0, 1.0, 0, 0, 1, 0, 1, 40, 12, 1, 1, 0, 1, 0, 1, 0, 1, 0, 1
2089, '1', 7, -9.73, 14.4, -9.73, 1.0221211, 0, 0, 0, 1.0, 0, 0, 1, 1, 1, 7, 0, 1, 1, 0, 1, 0, 1, 0, 1, 0, 1
2094, '1', 0.805, -1.44, 2.13, -1.44, 1.0376643, 0, 0, 0, 1.0, 0, 0, 1, 0, 1, 10, 0, 1, 1, 0, 1, 0, 1, 0, 1, 0, 1
2095, '1', 0, -11.45, 16.93, -11.45, 1.0376643, 0, 0, 0, 1.0, 0, 0, 1, 0, 1, 79.3, 0, 1, 1, 0, 1, 0, 1, 0, 1, 0, 1
2099, '1', 8.1, -1.44, 2.13, -1.44, 1.0007488, 0, 0, 0, 1.0, 0, 0, 1, 1, 1, 8.1, 0, 1, 1, 0, 1, 0, 1, 0, 1, 0, 1
2100, '1', 121, -21.6, 31.95, -21.6, 1.0129849, 0, 0, 0, 1.0, 0, 0, 1, 1, 1, 121, 0, 1, 1, 0, 1, 0, 1, 0, 1, 0, 1
2103, '1', 80.32, -29.72, 136.28, -29.72, 1.0309631, 0, 0, 0, 1.0, 0, 0, 1, 0, 1, 267.73, 80.32, 1, 1, 0, 1, 0, 1, 0, 1, 0, 1
2104, '1', 88.58, -29.72, 136.28, -29.72, 1.0309631, 0, 0, 0, 1.0, 0, 0, 1, 0, 1, 267.73, 80.32, 1, 1, 0, 1, 0, 1, 0, 1, 0, 1
2105, '1', 80.41, -29.72, 136.28, -29.72, 1.0309631, 0, 0, 0, 1.0, 0, 0, 1, 0, 1, 267.73, 80.32, 1, 1, 0, 1, 0, 1, 0, 1, 0, 1
2115, '1', 56.113029, -20.5, 94.02, -20.5, 1.0244309, 0, 0, 0, 1.0, 0, 0, 1, 1, 1, 184.72, 55.41, 1, 1, 0, 1, 0, 1, 0, 1, 0, 1
2116, '1', 56.113029, -20.5, 94.02, -20.5, 1.0280114, 0, 0, 0, 1.0, 0, 0, 1, 1, 1, 184.72, 55.41, 1, 1, 0, 1, 0, 1, 0, 1, 0, 1
2117, '1', 56.113029, -20.5, 94.02, -20.5, 1.0229487, 0, 0, 0, 1.0, 0, 0, 1, 1, 1, 184.72, 55.41, 1, 1, 0, 1, 0, 1, 0, 1, 0, 1
2118, '1', 56.113029, -20.5, 94.02, -20.5, 1.0220303, 0, 0, 0, 1.0, 0, 0, 1, 1, 1, 184.72, 55.41, 1, 1, 0, 1, 0, 1, 0, 1, 0, 1
2119, '1', 56.113029, -20.5, 94.02, -20.5, 1.0271502, 0, 0, 0, 1.0, 0, 0, 1, 1, 1, 184.72, 55.41, 1, 1, 0, 1, 0, 1, 0, 1, 0, 1
2120, '1', 56.113029, -20.5, 94.02, -20.5, 1.0224785, 0, 0, 0, 1.0, 0, 0, 1, 1, 1, 184.72, 55.41, 1, 1, 0, 1, 0, 1, 0, 1, 0, 1
2123, '1', 181.1, -26.16, 38.7, -26.16, 1.0443753, 0, 0, 0, 1.0, 0, 0, 1, 1, 1, 181.1, 0, 1, 1, 0, 1, 0, 1, 0, 1, 0, 1
2127, '1', 272, 28.783136, 61.47, -41.56, 1.0527288, 0, 0, 0, 1.0, 0, 0, 1, 1, 1, 272, 0, 1, 1, 0, 1, 0, 1, 0, 1, 0, 1
3004, '1', 24.6, -5.4, 7.99, -5.4, 1.0153539, 0, 0, 0, 1.0, 0, 0, 1, 1, 1, 24.6, 0, 1, 1, 0, 1, 0, 1, 0, 1, 0, 1
3017, '1', 53.1, -24.41, 36.1, -24.41, 1.01, 0, 0, 0, 1.0, 0, 0, 1, 1, 1, 53.1, 0, 1, 1, 0, 1, 0, 1, 0, 1, 0, 1
3020, '1', 74, -21.6, 31.95, -21.6, 1.03, 0, 0, 0, 1.0, 0, 0, 1, 1, 1, 74, 0, 1, 1, 0, 1, 0, 1, 0, 1, 0, 1
3028, '1', 45.7, -28.8, 42.6, -28.8, 1.04, 0, 0, 0, 1.0, 0, 0, 1, 1, 1, 45.7, 0, 1, 1, 0, 1, 0, 1, 0, 1, 0, 1
3034, '1', 40.6, -18.79, 27.8, -18.79, 1.03, 0, 0, 0, 1.0, 0, 0, 1, 1, 1, 40.6, 0, 1, 1, 0, 1, 0, 1, 0, 1, 0, 1
3039, '1', 86.3, -30.1, 44.52, -30.1, 1.04, 0, 0, 0, 1.0, 0, 0, 1, 1, 1, 86.3, 0, 1, 1, 0, 1, 0, 1, 0, 1, 0, 1
3043, '1', 0, 0.66, 0.66, -0.14, 1.0453142, 0, 0, 0, 1.0, 0, 0, 1, 0, 1, 1.3, 0.39, 1, 1, 0, 1, 0, 1, 0, 1, 0, 1
3044, '1', 0, 25.432, 45.5, -9.92, 1.0453142, 0, 0, 0, 1.0, 0, 0, 1, 0, 1, 89.4, 26.82, 1, 1, 0, 1, 0, 1, 0, 1, 0, 1
3045, '1', 134.1, 51.998, 227.52, -49.62, 1.0453142, 0, 0, 0, 1.0, 0, 0, 1, 0, 1, 447, 134.1, 1, 1, 0, 1, 0, 1, 0, 1, 0, 1
3048, '1', 127, -34.7, 51.33, -34.7, 1.0584433, 0, 0, 0, 1.0, 0, 0, 1, 1, 1, 127, 0, 1, 1, 0, 1, 0, 1, 0, 1, 0, 1
3055, '1', 47.1, -35.3, 52.22, -35.3, 1.04, 0, 0, 0, 1.0, 0, 0, 1, 1, 1, 47.1, 0, 1, 1, 0, 1, 0, 1, 0, 1, 0, 1
3056, '1', 47.1, -35.3, 52.22, -35.3, 1.04, 0, 0, 0, 1.0, 0, 0, 1, 1, 1, 47.1, 0, 1, 1, 0, 1, 0, 1, 0, 1, 0, 1
3057, '1', 47.1, -35.3, 52.22, -35.3, 1.04, 0, 0, 0, 1.0, 0, 0, 1, 1, 1, 47.1, 0, 1, 1, 0, 1, 0, 1, 0, 1, 0, 1
3060, '1', 54.5, -23.85, 35.28, -23.85, 1.04, 0, 0, 0, 1.0, 0, 0, 1, 1, 1, 54.5, 0, 1, 1, 0, 1, 0, 1, 0, 1, 0, 1
3061, '1', 5.4, -23.85, 35.28, -23.85, 1.04, 0, 0, 0, 1.0, 0, 0, 1, 1, 1, 5.4, 0, 1, 1, 0, 1, 0, 1, 0, 1, 0, 1
3062, '1', 54.5, -23.85, 35.28, -23.85, 1.04, 0, 0, 0, 1.0, 0, 0, 1, 1, 1, 54.5, 0, 1, 1, 0, 1, 0, 1, 0, 1, 0, 1
3063, '1', 54.5, -23.85, 35.28, -23.85, 1.04, 0, 0, 0, 1.0, 0, 0, 1, 1, 1, 54.5, 0, 1, 1, 0, 1, 0, 1, 0, 1, 0, 1
3065, '1', 38.7, -11.59, 17.15, -11.59, 1.0007055, 0, 0, 0, 1.0, 0, 0, 1, 1, 1, 38.7, 0, 1, 1, 0, 1, 0, 1, 0, 1, 0, 1
3068, '1', 75.7, -21.6, 31.95, -21.6, 1.0393277, 0, 0, 0, 1.0, 0, 0, 1, 1, 1, 75.7, 0, 1, 1, 0, 1, 0, 1, 0, 1, 0, 1
3071, '1', 59.3, -24.51, 36.25, -24.51, 1.0067327, 0, 0, 0, 1.0, 0, 0, 1, 1, 1, 59.3, 0, 1, 1, 0, 1, 0, 1, 0, 1, 0, 1
3074, '1', 3.3, -14.37, 21.26, -14.37, 1, 0, 0, 0, 1.0, 0, 0, 1, 1, 1, 3.3, 0, 1, 1, 0, 1, 0, 1, 0, 1, 0, 1
3081, '1', 159, -35.86, 53.04, -35.86, 1.04, 0, 0, 0, 1.0, 0, 0, 1, 1, 1, 159, 0, 1, 1, 0, 1, 0, 1, 0, 1, 0, 1
3084, '1', 141.2, -33.48, 49.52, -33.48, 1.0067832, 0, 0, 0, 1.0, 0, 0, 1, 1, 1, 141.2, 0, 1, 1, 0, 1, 0, 1, 0, 1, 0, 1
3086, '1', 24, -10.8, 15.97, -10.8, 1, 0, 0, 0, 1.0, 0, 0, 1, 1, 1, 24, 0, 1, 1, 0, 1, 0, 1, 0, 1, 0, 1
3087, '1', 23.981, -6.777, 15.97, -10.8, 1.0184427, 0, 0, 0, 1.0, 0, 0, 1, 0, 1, 24, 0, 1, 1, 0, 1, 0, 1, 0, 1, 0, 1
3092, '1', 46.6, -28.8, 42.6, -28.8, 1.04, 0, 0, 0, 1.0, 0, 0, 1, 1, 1, 46.6, 0, 1, 1, 0, 1, 0, 1, 0, 1, 0, 1
3095, '1', 68.8, -17.37, 25.69, -17.37, 1.04, 0, 0, 0, 1.0, 0, 0, 1, 1, 1, 68.8, 0, 1, 1, 0, 1, 0, 1, 0, 1, 0, 1
3098, '1', 77.4, -23.04, 34.08, -23.04, 1.04, 0, 0, 0, 1.0, 0, 0, 1, 1, 1, 77.4, 0, 1, 1, 0, 1, 0, 1, 0, 1, 0, 1
3105, '1', 0, -0.74, 17.071, -0.74, 1.0193193, 0, 0, 0, 1.0, 0, 0, 1, 1, 1, 0, 0, 1, 1, 0, 1, 0, 1, 0, 1, 0, 1
3106, '1', 0, -2.69, 62.477, -2.69, 1.0151047, 0, 0, 0, 1.0, 0, 0, 1, 1, 1, 0, 0, 1, 1, 0, 1, 0, 1, 0, 1, 0, 1
3110, '1', 31.8, -12.1, 17.89, -12.1, 1.04, 0, 0, 0, 1.0, 0, 0, 1, 1, 1, 31.8, 0, 1, 1, 0, 1, 0, 1, 0, 1, 0, 1
3112, '1', 41.3, -10.77, 15.93, -10.77, 1, 0, 0, 0, 1.0, 0, 0, 1, 1, 1, 41.3, 0, 1, 1, 0, 1, 0, 1, 0, 1, 0, 1
3113, '1', 6.7, -10.77, 15.93, -10.77, 1, 0, 0, 0, 1.0, 0, 0, 1, 1, 1, 6.7, 0, 1, 1, 0, 1, 0, 1, 0, 1, 0, 1
3117, '1', 39.8, -9.07, 13.42, -9.07, 1.005249, 0, 0, 0, 1.0, 0, 0, 1, 1, 1, 39.8, 0, 1, 1, 0, 1, 0, 1, 0, 1, 0, 1
3118, '1', 45.8, -17.28, 25.56, -17.28, 1.0029429, 0, 0, 0, 1.0, 0, 0, 1, 1, 1, 45.8, 0, 1, 1, 0, 1, 0, 1, 0, 1, 0, 1
3120, '1', 0, 0, 0, 0, 1.0096608, 0, 0, 0, 1.0, 0, 0, 1, 1, 1, 0, 0, 1, 1, 0, 1, 0, 1, 0, 1, 0, 1
3122, '1', 112, -28.37, 41.96, -28.37, 1, 0, 0, 0, 1.0, 0, 0, 1, 1, 1, 112, 0, 1, 1, 0, 1, 0, 1, 0, 1, 0, 1
3127, '1', 65.7, -19.44, 28.76, -19.44, 1.0197808, 0, 0, 0, 1.0, 0, 0, 1, 1, 1, 65.7, 0, 1, 1, 0, 1, 0, 1, 0, 1, 0, 1
3129, '1', 44, -18.22, 26.94, -18.22, 1.0216433, 0, 0, 0, 1.0, 0, 0, 1, 1, 1, 44, 0, 1, 1, 0, 1, 0, 1, 0, 1, 0, 1
3131, '1', 38.6, -16.42, 24.28, -16.42, 1.02, 0, 0, 0, 1.0, 0, 0, 1, 1, 1, 38.6, 0, 1, 1, 0, 1, 0, 1, 0, 1, 0, 1
3133, '1', 15.407, 5.257, 26.11, -5.69, 1.0289426, 0, 0, 0, 1.0, 0, 0, 1, 0, 1, 51.3, 15.39, 1, 1, 0, 1, 0, 1, 0, 1, 0, 1
3133, '2', 15.407, 5.257, 26.11, -5.69, 1.0289426, 0, 0, 0, 1.0, 0, 0, 1, 0, 1, 51.3, 15.39, 1, 1, 0, 1, 0, 1, 0, 1, 0, 1
3133, '3', 15.407, 5.257, 26.11, -5.69, 1.0289426, 0, 0, 0, 1.0, 0, 0, 1, 0, 1, 51.3, 15.39, 1, 1, 0, 1, 0, 1, 0, 1, 0, 1
3137, '1', 49, -14.57, 21.56, -14.57, 1.03, 0, 0, 0, 1.0, 0, 0, 1, 1, 1, 49, 0, 1, 1, 0, 1, 0, 1, 0, 1, 0, 1
3141, '1', 55.8, -13.18, 19.49, -13.18, 1.0211879, 0, 0, 0, 1.0, 0, 0, 1, 1, 1, 55.8, 0, 1, 1, 0, 1, 0, 1, 0, 1, 0, 1
4010, '1', 0, -29.03, 42.94, -29.03, 1.03, 0, 0, 0, 1.0, 0, 0, 1, 1, 1, 0, 0, 1, 1, 0, 1, 0, 1, 0, 1, 0, 1
4026, '1', 124.56043, -50.02, 191.06, -50.02, 1.03, 0, 0, 0, 1.0, 0, 0, 1, 1, 1, 410, 123, 1, 1, 0, 1, 0, 1, 0, 1, 0, 1
4030, '1', 189.0888, -75.93, 290.04, -75.93, 1.0143455, 0, 0, 0, 1.0, 0, 0, 1, 1, 1, 622.4, 186.72, 1, 1, 0, 1, 0, 1, 0, 1, 0, 1
4045, '1', 0, -1.54, 35.862, -1.54, 1.02, 0, 0, 0, 1.0, 0, 0, 1, 1, 1, 0, 0, 1, 1, 0, 1, 0, 1, 0, 1, 0, 1
4046, '1', 0, -0.47, 10.936, -0.47, 1.02, 0, 0, 0, 1.0, 0, 0, 1, 1, 1, 0, 0, 1, 1, 0, 1, 0, 1, 0, 1, 0, 1
4047, '1', 0, -3.23, 75.102, -3.23, 1.02, 0, 0, 0, 1.0, 0, 0, 1, 1, 1, 0, 0, 1, 1, 0, 1, 0, 1, 0, 1, 0, 1
4050, '1', 61, -28.8, 42.6, -28.8, 1, 0, 0, 0, 1.0, 0, 0, 1, 1, 1, 61, 0, 1, 1, 0, 1, 0, 1, 0, 1, 0, 1
4052, '1', 13.428221, -4.91, 22.5, -4.91, 1.04, 0, 0, 0, 1.0, 0, 0, 1, 1, 1, 44.2, 13.26, 1, 1, 0, 1, 0, 1, 0, 1, 0, 1
4058, '1', 43.748052, -15.98, 73.3, -15.98, 1.03, 0, 0, 0, 1.0, 0, 0, 1, 1, 1, 144, 43.2, 1, 1, 0, 1, 0, 1, 0, 1, 0, 1
4059, '1', 43.748052, -15.98, 73.3, -15.98, 1.03, 0, 0, 0, 1.0, 0, 0, 1, 1, 1, 144, 43.2, 1, 1, 0, 1, 0, 1, 0, 1, 0, 1
4060, '1', 43.748052, -15.98, 73.3, -15.98, 1.03, 0, 0, 0, 1.0, 0, 0, 1, 1, 1, 144, 43.2, 1, 1, 0, 1, 0, 1, 0, 1, 0, 1
4061, '1', 52.355873, -19.13, 87.72, -19.13, 1.03, 0, 0, 0, 1.0, 0, 0, 1, 1, 1, 172.33, 51.7, 1, 1, 0, 1, 0, 1, 0, 1, 0, 1
4062, '1', 52.355873, -19.13, 87.72, -19.13, 1.03, 0, 0, 0, 1.0, 0, 0, 1, 1, 1, 172.33, 51.7, 1, 1, 0, 1, 0, 1, 0, 1, 0, 1
4063, '1', 52.355873, -19.13, 87.72, -19.13, 1.03, 0, 0, 0, 1.0, 0, 0, 1, 1, 1, 172.33, 51.7, 1, 1, 0, 1, 0, 1, 0, 1, 0, 1
4065, '1', 14.278878, -5.22, 23.92, -5.22, 1.02, 0, 0, 0, 1.0, 0, 0, 1, 1, 1, 47, 14.1, 1, 1, 0, 1, 0, 1, 0, 1, 0, 1
4075, '1', 52.9, 22.598, 89.75, -19.57, 1.0151302, 0, 0, 0, 1.0, 0, 0, 1, 0, 1, 176.33, 52.9, 1, 1, 0, 1, 0, 1, 0, 1, 0, 1
4076, '1', 53.571097, -19.57, 89.75, -19.57, 1.03, 0, 0, 0, 1.0, 0, 0, 1, 1, 1, 176.33, 52.9, 1, 1, 0, 1, 0, 1, 0, 1, 0, 1
4077, '1', 53.571097, -19.57, 89.75, -19.57, 1.03, 0, 0, 0, 1.0, 0, 0, 1, 1, 1, 176.33, 52.9, 1, 1, 0, 1, 0, 1, 0, 1, 0, 1
4082, '1', 73.94636, -27.02, 123.89, -27.02, 1.04, 0, 0, 0, 1.0, 0, 0, 1, 1, 1, 243.4, 73.02, 1, 1, 0, 1, 0, 1, 0, 1, 0, 1
4083, '1', 73.94636, -27.02, 123.89, -27.02, 1.04, 0, 0, 0, 1.0, 0, 0, 1, 1, 1, 243.4, 73.02, 1, 1, 0, 1, 0, 1, 0, 1, 0, 1
4084, '1', 73.94636, -27.02, 123.89, -27.02, 1.04, 0, 0, 0, 1.0, 0, 0, 1, 1, 1, 243.4, 73.02, 1, 1, 0, 1, 0, 1, 0, 1, 0, 1
4085, '1', 106.93968, -39.07, 179.17, -39.07, 1.04, 0, 0, 0, 1.0, 0, 0, 1, 1, 1, 352, 105.6, 1, 1, 0, 1, 0, 1, 0, 1, 0, 1
4090, '1', 1.4, 0.235, 0.65, -0.17, 1.0091596, 0, 0, 0, 1.0, 0, 0, 1, 0, 1, 1.4, 0.42, 1, 1, 0, 1, 0, 1, 0, 1, 0, 1
4091, '1', 7.139439, -2.87, 10.95, -2.87, 1.01, 0, 0, 0, 1.0, 0, 0, 1, 1, 1, 23.5, 7.05, 1, 1, 0, 1, 0, 1, 0, 1, 0, 1
4092, '1', 7.598, 1.067, 3.54, -0.93, 1.0091596, 0, 0, 0, 1.0, 0, 0, 1, 0, 1, 7.6, 2.28, 1, 1, 0, 1, 0, 1, 0, 1, 0, 1
4093, '1', 8.5065656, -3.42, 13.05, -3.42, 1.01, 0, 0, 0, 1.0, 0, 0, 1, 1, 1, 28, 8.4, 1, 1, 0, 1, 0, 1, 0, 1, 0, 1
4094, '1', 8.5065656, -3.42, 13.05, -3.42, 1.01, 0, 0, 0, 1.0, 0, 0, 1, 1, 1, 28, 8.4, 1, 1, 0, 1, 0, 1, 0, 1, 0, 1
4095, '1', 8.5065656, -3.42, 13.05, -3.42, 1.01, 0, 0, 0, 1.0, 0, 0, 1, 1, 1, 28, 8.4, 1, 1, 0, 1, 0, 1, 0, 1, 0, 1
4096, '1', 27.993, 0.473, 13.05, -3.42, 1.0091596, 0, 0, 0, 1.0, 0, 0, 1, 0, 1, 28, 8.4, 1, 1, 0, 1, 0, 1, 0, 1, 0, 1
4097, '1', 8.5065656, -3.42, 13.05, -3.42, 1.01, 0, 0, 0, 1.0, 0, 0, 1, 1, 1, 28, 8.4, 1, 1, 0, 1, 0, 1, 0, 1, 0, 1
4098, '1', 27.993, 0.259, 13.05, -3.42, 1.0091596, 0, 0, 0, 1.0, 0, 0, 1, 0, 1, 28, 8.4, 1, 1, 0, 1, 0, 1, 0, 1, 0, 1
4105, '1', 99.5, -25.92, 38.34, -25.92, 1.01, 0, 0, 0, 1.0, 0, 0, 1, 1, 1, 99.5, 0, 1, 1, 0, 1, 0, 1, 0, 1, 0, 1
4115, '1', 40.04162, -14.63, 67.09, -14.63, 1.04, 0, 0, 0, 1.0, 0, 0, 1, 1, 1, 131.8, 39.54, 1, 1, 0, 1, 0, 1, 0, 1, 0, 1
4116, '1', 40.04162, -14.63, 67.09, -14.63, 1.04, 0, 0, 0, 1.0, 0, 0, 1, 1, 1, 131.8, 39.54, 1, 1, 0, 1, 0, 1, 0, 1, 0, 1
4133, '1', 10.091, -3.73, 17.1, -3.73, 1.0173354, 0, 0, 0, 1.0, 0, 0, 1, 0, 1, 33.6, 10.08, 1, 1, 0, 1, 0, 1, 0, 1, 0, 1
4134, '1', 10.207879, -3.73, 17.1, -3.73, 1.0119923, 0, 0, 0, 1.0, 0, 0, 1, 1, 1, 33.6, 10.08, 1, 1, 0, 1, 0, 1, 0, 1, 0, 1
4135, '1', 10.207879, -3.73, 17.1, -3.73, 1.0123875, 0, 0, 0, 1.0, 0, 0, 1, 1, 1, 33.6, 10.08, 1, 1, 0, 1, 0, 1, 0, 1, 0, 1
4136, '1', 10.207879, -3.73, 17.1, -3.73, 1.0106878, 0, 0, 0, 1.0, 0, 0, 1, 1, 1, 33.6, 10.08, 1, 1, 0, 1, 0, 1, 0, 1, 0, 1
4137, '1', 0, -7.46, 34.2, -7.46, 1.0173354, 0, 0, 0, 1.0, 0, 0, 1, 0, 1, 67.2, 20.16, 1, 1, 0, 1, 0, 1, 0, 1, 0, 1
4138, '1', 0, -7.33, 33.59, -7.33, 1.0173354, 0, 0, 0, 1.0, 0, 0, 1, 0, 1, 66, 19.8, 1, 1, 0, 1, 0, 1, 0, 1, 0, 1
4142, '1', 92.5, -27.07, 40.04, -27.07, 1.04, 0, 0, 0, 1.0, 0, 0, 1, 1, 1, 92.5, 0, 1, 1, 0, 1, 0, 1, 0, 1, 0, 1
4153, '1', 71.1, -40.78, 60.32, -40.78, 1.0367716, 0, 0, 0, 1.0, 0, 0, 1, 1, 1, 71.1, 0, 1, 1, 0, 1, 0, 1, 0, 1, 0, 1
4160, '1', 60.082696, -21.95, 100.66, -21.95, 1.03, 0, 0, 0, 1.0, 0, 0, 1, 1, 1, 197.77, 59.33, 1, 1, 0, 1, 0, 1, 0, 1, 0, 1
4161, '1', 60.082696, -21.95, 100.66, -21.95, 1.03, 0, 0, 0, 1.0, 0, 0, 1, 1, 1, 197.77, 59.33, 1, 1, 0, 1, 0, 1, 0, 1, 0, 1
4162, '1', 60.082696, -21.95, 100.66, -21.95, 1.03, 0, 0, 0, 1.0, 0, 0, 1, 1, 1, 197.77, 59.33, 1, 1, 0, 1, 0, 1, 0, 1, 0, 1
4163, '1', 8.998, 4.58, 4.58, -1, 1.0204721, 0, 0, 0, 1.0, 0, 0, 1, 0, 1, 9, 2.7, 1, 1, 0, 1, 0, 1, 0, 1, 0, 1
4166, '1', 50.5, -28.94, 42.81, -28.94, 1.0092696, 0, 0, 0, 1.0, 0, 0, 1, 1, 1, 50.5, 0, 1, 1, 0, 1, 0, 1, 0, 1, 0, 1
4177, '1', 82.9, -21.6, 31.95, -21.6, 1.04, 0, 0, 0, 1.0, 0, 0, 1, 1, 1, 82.9, 0, 1, 1, 0, 1, 0, 1, 0, 1, 0, 1
4181, '1', 90.4, -28.81, 42.62, -28.81, 1.0281091, 0, 0, 0, 1.0, 0, 0, 1, 1, 1, 90.4, 0, 1, 1, 0, 1, 0, 1, 0, 1, 0, 1
4183, '1', 202.1, -29.23, 43.24, -29.23, 1.0208254, 0, 0, 0, 1.0, 0, 0, 1, 1, 1, 202.1, 0, 1, 1, 0, 1, 0, 1, 0, 1, 0, 1
4192, '1', 22.785444, -8.33, 38.17, -8.33, 1.02, 0, 0, 0, 1.0, 0, 0, 1, 1, 1, 75, 22.5, 1, 1, 0, 1, 0, 1, 0, 1, 0, 1
4192, '10', 55.829413, -20.4, 93.54, -20.4, 1.02, 0, 0, 0, 1.0, 0, 0, 1, 1, 1, 183.77, 55.13, 1, 1, 0, 1, 0, 1, 0, 1, 0, 1
4192, '2', 23.994, 10.758, 12.22, -2.66, 1.02, 0, 0, 0, 1.0, 0, 0, 1, 0, 1, 24, 7.2, 1, 1, 0, 1, 0, 1, 0, 1, 0, 1
4192, '3', 18.532161, -6.77, 31.05, -6.77, 1.02, 0, 0, 0, 1.0, 0, 0, 1, 1, 1, 61, 18.3, 1, 1, 0, 1, 0, 1, 0, 1, 0, 1
4192, '4', 3.1595815, -1.15, 5.29, -1.15, 1.02, 0, 0, 0, 1.0, 0, 0, 1, 1, 1, 10.4, 3.12, 1, 1, 0, 1, 0, 1, 0, 1, 0, 1
4192, '5', 81.116179, -29.64, 135.9, -29.64, 1.02, 0, 0, 0, 1.0, 0, 0, 1, 1, 1, 267, 80.1, 1, 1, 0, 1, 0, 1, 0, 1, 0, 1
4192, '6', 81.116179, -29.64, 135.9, -29.64, 1.02, 0, 0, 0, 1.0, 0, 0, 1, 1, 1, 267, 80.1, 1, 1, 0, 1, 0, 1, 0, 1, 0, 1
4192, '7', 81.116179, -29.64, 135.9, -29.64, 1.02, 0, 0, 0, 1.0, 0, 0, 1, 1, 1, 267, 80.1, 1, 1, 0, 1, 0, 1, 0, 1, 0, 1
4192, '8', 55.829413, -20.4, 93.54, -20.4, 1.02, 0, 0, 0, 1.0, 0, 0, 1, 1, 1, 183.77, 55.13, 1, 1, 0, 1, 0, 1, 0, 1, 0, 1
4192, '9', 55.829413, -20.4, 93.54, -20.4, 1.02, 0, 0, 0, 1.0, 0, 0, 1, 1, 1, 183.77, 55.13, 1, 1, 0, 1, 0, 1, 0, 1, 0, 1
4194, '1', 46.6, -29.03, 42.94, -29.03, 1.0093025, 0, 0, 0, 1.0, 0, 0, 1, 1, 1, 46.6, 0, 1, 1, 0, 1, 0, 1, 0, 1, 0, 1
4195, '1', 74.2, -13.25, 19.6, -13.25, 1.0296679, 0, 0, 0, 1.0, 0, 0, 1, 1, 1, 74.2, 0, 1, 1, 0, 1, 0, 1, 0, 1, 0, 1
5020, '1', 34.9, -17.28, 25.56, -17.28, 1.0425286, 0, 0, 0, 1.0, 0, 0, 1, 1, 1, 34.9, 0, 1, 1, 0, 1, 0, 1, 0, 1, 0, 1
5023, '1', 0, 2.44, 2.44, -0.53, 1.030484, 0, 0, 0, 1.0, 0, 0, 1, 0, 1, 4.8, 1.44, 1, 1, 0, 1, 0, 1, 0, 1, 0, 1
5035, '1', 1.261, -0.47, 2.14, -0.47, 1.0244125, 0, 0, 0, 1.0, 0, 0, 1, 0, 1, 4.2, 1.26, 1, 1, 0, 1, 0, 1, 0, 1, 0, 1
5036, '1', 0, 3.26, 3.26, -0.71, 1.0244125, 0, 0, 0, 1.0, 0, 0, 1, 0, 1, 6.4, 1.92, 1, 1, 0, 1, 0, 1, 0, 1, 0, 1
5037, '1', 93.714011, -34.24, 157.01, -34.24, 1.0204495, 0, 0, 0, 1.0, 0, 0, 1, 1, 1, 308.47, 92.54, 1, 1, 0, 1, 0, 1, 0, 1, 0, 1
5038, '1', 93.714011, -34.24, 157.01, -34.24, 1.0202549, 0, 0, 0, 1.0, 0, 0, 1, 1, 1, 308.47, 92.54, 1, 1, 0, 1, 0, 1, 0, 1, 0, 1
5039, '1', 93.714011, -34.24, 157.01, -34.24, 1.0227078, 0, 0, 0, 1.0, 0, 0, 1, 1, 1, 308.47, 92.54, 1, 1, 0, 1, 0, 1, 0, 1, 0, 1
5040, '1', 93.714011, -34.24, 157.01, -34.24, 1.02, 0, 0, 0, 1.0, 0, 0, 1, 1, 1, 308.47, 92.54, 1, 1, 0, 1, 0, 1, 0, 1, 0, 1
5041, '1', 93.714011, -34.24, 157.01, -34.24, 1.0208095, 0, 0, 0, 1.0, 0, 0, 1, 1, 1, 308.47, 92.54, 1, 1, 0, 1, 0, 1, 0, 1, 0, 1
5042, '1', 93.714011, -34.24, 157.01, -34.24, 1.02, 0, 0, 0, 1.0, 0, 0, 1, 1, 1, 308.47, 92.54, 1, 1, 0, 1, 0, 1, 0, 1, 0, 1
5051, '1', 25.732361, -9.4, 43.11, -9.4, 1.0303161, 0, 0, 0, 1.0, 0, 0, 1, 1, 1, 84.7, 25.41, 1, 1, 0, 1, 0, 1, 0, 1, 0, 1
5057, '1', 317.27, -35.23, 161.53, -35.23, 1.0428122, 0, 0, 0, 1.0, 0, 0, 1, 0, 1, 317.35, 95.2, 1, 1, 0, 1, 0, 1, 0, 1, 0, 1
5058, '1', 96.407807, -35.23, 161.53, -35.23, 1.0383355, 0, 0, 0, 1.0, 0, 0, 1, 1, 1, 317.35, 95.2, 1, 1, 0, 1, 0, 1, 0, 1, 0, 1
5065, '1', 3.2203427, -1.18, 5.4, -1.18, 1.0294855, 0, 0, 0, 1.0, 0, 0, 1, 1, 1, 10.6, 3.18, 1, 1, 0, 1, 0, 1, 0, 1, 0, 1
5066, '1', 0, 0.92, 0.92, -0.2, 1.0285424, 0, 0, 0, 1.0, 0, 0, 1, 0, 1, 1.8, 0.54, 1, 1, 0, 1, 0, 1, 0, 1, 0, 1
5067, '1', 133.14802, -48.65, 223.08, -48.65, 1.03, 0, 0, 0, 1.0, 0, 0, 1, 1, 1, 438.27, 131.48, 1, 1, 0, 1, 0, 1, 0, 1, 0, 1
5068, '1', 133.14802, -48.65, 223.08, -48.65, 1.03, 0, 0, 0, 1.0, 0, 0, 1, 1, 1, 438.27, 131.48, 1, 1, 0, 1, 0, 1, 0, 1, 0, 1
5069, '1', 133.14802, -48.65, 223.08, -48.65, 1.03, 0, 0, 0, 1.0, 0, 0, 1, 1, 1, 438.27, 131.48, 1, 1, 0, 1, 0, 1, 0, 1, 0, 1
5089, '1', 123.89, -2.05, 47.569, -2.05, 1.0351298, 0, 0, 0, 1.0, 0, 0, 1, 0, 1, 123.9, 0, 1, 1, 0, 1, 0, 1, 0, 1, 0, 1
...
0 / END OF GENERATOR DATA, BEGIN BRANCH DATA
1001, 1064, '1', 0.00524, 0.0358, 0.00609, 221, 221, 221, 0, 0, 0, 0, 1, 1, 0, 1, 1, 0, 1, 0, 1, 0, 1
1001, 1064, '2', 0.00524, 0.0358, 0.00609, 221, 221, 221, 0, 0, 0, 0, 1, 1, 0, 1, 1, 0, 1, 0, 1, 0, 1
1001, 1071, '1', 0.00435, 0.02808, 0.00536, 221, 221, 221, 0, 0, 0, 0, 1, 1, 0, 1, 1, 0, 1, 0, 1, 0, 1
1001, 1071, '2', 0.00435, 0.02808, 0.00536, 221, 221, 221, 0, 0, 0, 0, 0, 1, 0, 1, 1, 0, 1, 0, 1, 0, 1
1002, 1007, '1', 0.07776, 0.46693, 0.06336, 98, 98, 98, 0, 0, 0, 0, 1, 1, 0, 1, 1, 0, 1, 0, 1, 0, 1
1010, 1002, '1', 0.05552, 0.1357, 0.01777, 98, 98, 98, 0, 0, 0, 0, 1, 1, 0, 1, 1, 0, 1, 0, 1, 0, 1
1022, 1003, '1', 0.00485, 0.02012, 0.00341, 221, 221, 221, 0, 0, 0, 0, 1, 1, 0, 1, 1, 0, 1, 0, 1, 0, 1
1055, 1003, '1', 0.01574, 0.03782, 0.00513, 98, 98, 98, 0, 0, 0, 0, 1, 1, 0, 1, 1, 0, 1, 0, 1, 0, 1
1004, 3133, '1', 0.0042, 0.03, 0.055, 523, 523, 523, 0, 0, 0, 0, 1, 1, 0, 1, 1, 0, 1, 0, 1, 0, 1
1025, 1005, '1', 0.01842, 0.0821, 0.01204, 149, 149, 149, 0, 0, 0, 0, 1, 1, 0, 1, 1, 0, 1, 0, 1, 0, 1
1005, 1061, '1', 0.00599, 0.02484, 0.00422, 221, 221, 221, 0, 0, 0, 0, 1, 1, 0, 1, 1, 0, 1, 0, 1, 0, 1
1067, 1005, '1', 0.01711, 0.04181, 0.00548, 98, 98, 98, 0, 0, 0, 0, 1, 1, 0, 1, 1, 0, 1, 0, 1, 0, 1
1007, 1015, '1', 0.06224, 0.37375, 0.05072, 98, 98, 98, 0, 0, 0, 0, 1, 1, 0, 1, 1, 0, 1, 0, 1, 0, 1
1031, 1007, '1', 0.04803, 0.27434, 0.04123, 98, 98, 98, 0, 0, 0, 0, 1, 1, 0, 1, 1, 0, 1, 0, 1, 0, 1
1008, 1032, '1', 0.04501, 0.11002, 0.01441, 98, 98, 98, 0, 0, 0, 0, 1, 1, 0, 1, 1, 0, 1, 0, 1, 0, 1
1008, 1069, '1', 0.0083, 0.03628, 0.00553, 149, 149, 149, 0, 0, 0, 0, 1, 1, 0, 1, 1, 0, 1, 0, 1, 0, 1
1010, 1015, '1', 0.04703, 0.28243, 0.03833, 98, 98, 98, 0, 0, 0, 0, 1, 1, 0, 1, 1, 0, 1, 0, 1, 0, 1
1010, 1030, '1', 0.0616, 0.3699, 0.0502, 98, 98, 98, 0, 0, 0, 0, 1, 1, 0, 1, 1, 0, 1, 0, 1, 0, 1
1012, 1087, '1', 0.04934, 0.20469, 0.03473, 149, 149, 149, 0, 0, 0, 0, 1, 1, 0, 1, 1, 0, 1, 0, 1, 0, 1
3051, 1012, '1', 0.0571, 0.24977, 0.03804, 149, 149, 149, 0, 0, 0, 0, 1, 1, 0, 1, 1, 0, 1, 0, 1, 0, 1
1013, 1031, '1', 0.04509, 0.27078, 0.03675, 98, 98, 98, 0, 0, 0, 0, 1, 1, 0, 1, 1, 0, 1, 0, 1, 0, 1
1047, 1013, '1', 0.00947, 0.06117, 0.01167, 221, 221, 221, 0, 0, 0, 0, 1, 1, 0, 1, 1, 0, 1, 0, 1, 0, 1
1086, 1013, '1', 0.079, 0.19311, 0.02529, 98, 98, 98, 0, 0, 0, 0, 1, 1, 0, 1, 1, 0, 1, 0, 1, 0, 1
1014, 1047, '1', 0.03566, 0.14794, 0.0251, 149, 149, 149, 0, 0, 0, 0, 1, 1, 0, 1, 1, 0, 1, 0, 1, 0, 1
1014, 1083, '1', 0.04105, 0.18293, 0.02682, 149, 149, 149, 0, 0, 0, 0, 1, 1, 0, 1, 1, 0, 1, 0, 1, 0, 1
1016, 1034, '1', 0.01828, 0.10976, 0.01489, 98, 98, 98, 0, 0, 0, 0, 1, 1, 0, 1, 1, 0, 1, 0, 1, 0, 1
1068, 1016, '1', 0.02773, 0.15837, 0.0238, 98, 98, 98, 0, 0, 0, 0, 1, 1, 0, 1, 1, 0, 1, 0, 1, 0, 1
1018, 1017, '1', 0.03227, 0.07887, 0.01033, 98, 98, 98, 0, 0, 0, 0, 1, 1, 0, 1, 1, 0, 1, 0, 1, 0, 1
1017, 1029, '1', 0.03244, 0.14188, 0.02161, 149, 149, 149, 0, 0, 0, 0, 1, 1, 0, 1, 1, 0, 1, 0, 1, 0, 1
1037, 1017, '1', 0.00752, 0.03352, 0.00491, 221, 221, 221, 0, 0, 0, 0, 1, 1, 0, 1, 1, 0, 1, 0, 1, 0, 1
1047, 1017, '1', 0.036, 0.156, 0.024, 150, 150, 150, 0, 0, 0, 0, 1, 1, 0, 1, 1, 0, 1, 0, 1, 0, 1
1024, 1018, '1', 0.01094, 0.06572, 0.00892, 98, 98, 98, 0, 0, 0, 0, 1, 1, 0, 1, 1, 0, 1, 0, 1, 0, 1
1019, 1040, '1', 0.04978, 0.20651, 0.03504, 149, 149, 149, 0, 0, 0, 0, 1, 1, 0, 1, 1, 0, 1, 0, 1, 0, 1
1019, 1045, '1', 0.01522, 0.0372, 0.00487, 221, 221, 221, 0, 0, 0, 0, 1, 1, 0, 1, 1, 0, 1, 0, 1, 0, 1
1019, 1071, '1', 0.0044, 0.028, 0.0054, 225, 225, 225, 0, 0, 0, 0, 1, 1, 0, 1, 1, 0, 1, 0, 1, 0, 1
1071, 1019, '2', 0.0044, 0.028, 0.0054, 225, 225, 225, 0, 0, 0, 0, 1, 1, 0, 1, 1, 0, 1, 0, 1, 0, 1
1019, 1084, '1', 0.03, 0.16, 0.025, 220, 220, 220, 0, 0, 0, 0, 1, 1, 0, 1, 1, 0, 1, 0, 1, 0, 1
1025, 1020, '1', 0.00828, 0.03434, 0.00583, 149, 149, 149, 0, 0, 0, 0, 1, 1, 0, 1, 1, 0, 1, 0, 1, 0, 1
1084, 1020, '1', 0.01056, 0.06337, 0.0086, 221, 221, 221, 0, 0, 0, 0, 1, 1, 0, 1, 1, 0, 1, 0, 1, 0, 1
1020, 3059, '1', 0.0189, 0.06, 0.006, 300, 300, 300, 0, 0, 0, 0, 1, 1, 0, 1, 1, 0, 1, 0, 1, 0, 1
1020, 3130, '1', 0.00996, 0.06938, 0.01134, 221, 221, 221, 0, 0, 0, 0, 1, 1, 0, 1, 1, 0, 1, 0, 1, 0, 1
1022, 1028, '1', 0.01433, 0.09253, 0.01765, 221, 221, 221, 0, 0, 0, 0, 1, 1, 0, 1, 1, 0, 1, 0, 1, 0, 1
1022, 1028, '2', 0.01433, 0.09253, 0.01765, 221, 221, 221, 0, 0, 0, 0, 1, 1, 0, 1, 1, 0, 1, 0, 1, 0, 1
1024, 1090, '1', 0.01414, 0.06303, 0.00924, 149, 149, 149, 0, 0, 0, 0, 1, 1, 0, 1, 1, 0, 1, 0, 1, 0, 1
1027, 1045, '1', 0.02505, 0.10957, 0.01669, 221, 221, 221, 0, 0, 0, 0, 1, 1, 0, 1, 1, 0, 1, 0, 1, 0, 1
1056, 1027, '1', 0.03121, 0.0763, 0.00999, 250, 250, 250, 0, 0, 0, 0, 1, 1, 0, 1, 1, 0, 1, 0, 1, 0, 1
1028, 3109, '1', 0.00428, 0.01875, 0.00286, 250, 250, 250, 0, 0, 0, 0, 1, 1, 0, 1, 1, 0, 1, 0, 1, 0, 1
1029, 1056, '1', 0.02054, 0.11733, 0.01763, 221, 221, 221, 0, 0, 0, 0, 1, 1, 0, 1, 1, 0, 1, 0, 1, 0, 1
1030, 1038, '1', 0.07404, 0.42285, 0.06354, 98, 98, 98, 0, 0, 0, 0, 1, 1, 0, 1, 1, 0, 1, 0, 1, 0, 1
1083, 1030, '1', 0.06537, 0.37334, 0.0561, 98, 98, 98, 0, 0, 0, 0, 1, 1, 0, 1, 1, 0, 1, 0, 1, 0, 1
1032, 1036, '1', 0.01956, 0.11746, 0.01594, 98, 98, 98, 0, 0, 0, 0, 1, 1, 0, 1, 1, 0, 1, 0, 1, 0, 1
1038, 1032, '1', 0.045, 0.11, 0.015, 155, 155, 155, 0, 0, 0, 0, 1, 1, 0, 1, 1, 0, 1, 0, 1, 0, 1
1033, 1081, '1', 0.003, 0.031, 0.059, 548, 548, 548, 0, 0, 0, 0, 1, 1, 0, 1, 1, 0, 1, 0, 1, 0, 1
1033, 3050, '1', 0.0139, 0.136, 0.262, 647, 647, 647, 0, 0, 0, 0, 1, 1, 0, 1, 1, 0, 1, 0, 1, 0, 1
1067, 1034, '1', 0.00795, 0.04771, 0.00647, 98, 98, 98, 0, 0, 0, 0, 1, 1, 0, 1, 1, 0, 1, 0, 1, 0, 1
1088, 1036, '1', 0.02065, 0.11793, 0.01772, 98, 98, 98, 0, 0, 0, 0, 1, 1, 0, 1, 1, 0, 1, 0, 1, 0, 1
1037, 1071, '1', 0.00669, 0.04319, 0.00824, 300, 300, 300, 0, 0, 0, 0, 1, 1, 0, 1, 1, 0, 1, 0, 1, 0, 1
1082, 1038, '1', 0.01115, 0.04969, 0.00729, 149, 149, 149, 0, 0, 0, 0, 1, 1, 0, 1, 1, 0, 1, 0, 1, 0, 1
1083, 1038, '1', 0.01, 0.05, 0.007, 221, 221, 221, 0, 0, 0, 0, 1, 1, 0, 1, 1, 0, 1, 0, 1, 0, 1
1040, 1090, '1', 0.02991, 0.13329, 0.01955, 149, 149, 149, 0, 0, 0, 0, 1, 1, 0, 1, 1, 0, 1, 0, 1, 0, 1
1065, 1041, '1', 0.00386, 0.02203, 0.00331, 98, 98, 98, 0, 0, 0, 0, 1, 1, 0, 1, 1, 0, 1, 0, 1, 0, 1
1041, 1067, '1', 0.00393, 0.01722, 0.00262, 149, 149, 149, 0, 0, 0, 0, 1, 1, 0, 1, 1, 0, 1, 0, 1, 0, 1
1044, 3019, '1', 0.03857, 0.17192, 0.02521, 149, 149, 149, 0, 0, 0, 0, 1, 1, 0, 1, 1, 0, 1, 0, 1, 0, 1
3130, 1044, '1', 0.02731, 0.19029, 0.03111, 221, 221, 221, 0, 0, 0, 0, 1, 1, 0, 1, 1, 0, 1, 0, 1, 0, 1
1045, 1064, '1', 0.00545, 0.03794, 0.0062, 221, 221, 221, 0, 0, 0, 0, 1, 1, 0, 1, 1, 0, 1, 0, 1, 0, 1
1087, 1046, '1', 0.03262, 0.14269, 0.02173, 149, 149, 149, 0, 0, 0, 0, 1, 1, 0, 1, 1, 0, 1, 0, 1, 0, 1
1046, 3009, '1', 0.05654, 0.23454, 0.0398, 149, 149, 149, 0, 0, 0, 0, 1, 1, 0, 1, 1, 0, 1, 0, 1, 0, 1
1047, 1085, '1', 0.00947, 0.06117, 0.01167, 221, 221, 221, 0, 0, 0, 0, 1, 1, 0, 1, 1, 0, 1, 0, 1, 0, 1
1053, 1081, '1', 0.003, 0.03, 0.06, 548, 548, 548, 0, 0, 0, 0, 1, 1, 0, 1, 1, 0, 1, 0, 1, 0, 1
1054, 1056, '1', 0.02202, 0.09633, 0.01467, 149, 149, 149, 0, 0, 0, 0, 1, 1, 0, 1, 1, 0, 1, 0, 1, 0, 1
1089, 1054, '1', 0.08737, 0.21357, 0.02796, 98, 98, 98, 0, 0, 0, 0, 1, 1, 0, 1, 1, 0, 1, 0, 1, 0, 1
1055, 1089, '1', 0.04982, 0.12179, 0.01595, 98, 98, 98, 0, 0, 0, 0, 1, 1, 0, 1, 1, 0, 1, 0, 1, 0, 1
1056, 1061, '1', 0.02267, 0.12946, 0.01945, 150, 150, 150, 0, 0, 0, 0, 1, 1, 0, 1, 1, 0, 1, 0, 1, 0, 1
1056, 1065, '1', 0.02269, 0.12962, 0.01948, 250, 250, 250, 0, 0, 0, 0, 1, 1, 0, 1, 1, 0, 1, 0, 1, 0, 1
1069, 1058, '1', 0.0074, 0.05155, 0.00843, 221, 221, 221, 0, 0, 0, 0, 1, 1, 0, 1, 1, 0, 1, 0, 1, 0, 1
1069, 1058, '2', 0.0074, 0.05155, 0.00843, 221, 221, 221, 0, 0, 0, 0, 1, 1, 0, 1, 1, 0, 1, 0, 1, 0, 1
1058, 1087, '1', 0.01573, 0.10956, 0.01791, 221, 221, 221, 0, 0, 0, 0, 1, 1, 0, 1, 1, 0, 1, 0, 1, 0, 1
1058, 1087, '2', 0.01573, 0.10956, 0.01791, 221, 221, 221, 0, 0, 0, 0, 1, 1, 0, 1, 1, 0, 1, 0, 1, 0, 1
1061, 3042, '1', 0.054, 0.18, 0.028, 221, 221, 221, 0, 0, 0, 0, 1, 1, 0, 1, 1, 0, 1, 0, 1, 0, 1
1088, 1068, '1', 0.02962, 0.16921, 0.02543, 98, 98, 98, 0, 0, 0, 0, 1, 1, 0, 1, 1, 0, 1, 0, 1, 0, 1
1082, 1069, '1', 0.02137, 0.0952, 0.01396, 149, 149, 149, 0, 0, 0, 0, 1, 1, 0, 1, 1, 0, 1, 0, 1, 0, 1
3048, 1079, '1', 0.0013, 0.015, 1.02, 2300, 2300, 2300, 0, 0, 0, 0, 1, 1, 0, 1, 1, 0, 1, 0, 1, 0, 1
3048, 1079, '2', 0.0013, 0.015, 1.02, 2300, 2300, 2300, 0, 0, 0, 0, 1, 1, 0, 1, 1, 0, 1, 0, 1, 0, 1
1081, 3058, '1', 0.0091, 0.089, 0.171, 548, 548, 548, 0, 0, 0, 0, 1, 1, 0, 1, 1, 0, 1, 0, 1, 0, 1
1084, 3130, '1', 0.02049, 0.09131, 0.01339, 221, 221, 221, 0, 0, 0, 0, 1, 1, 0, 1, 1, 0, 1, 0, 1, 0, 1
1085, 1086, '1', 0.03392, 0.14838, 0.0226, 149, 149, 149, 0, 0, 0, 0, 1, 1, 0, 1, 1, 0, 1, 0, 1, 0, 1
1090, 1085, '1', 0.02018, 0.13786, 0.02346, 221, 221, 221, 0, 0, 0, 0, 1, 1, 0, 1, 1, 0, 1, 0, 1, 0, 1
2029, 1091, '1', 0.0389, 0.17144, 0.0798, 187, 187, 187, 0, 0, 0, 0, 1, 1, 0, 1, 1, 0, 1, 0, 1, 0, 1
1091, 2048, '1', 0.02193, 0.09667, 0.045, 187, 187, 187, 0, 0, 0, 0, 1, 1, 0, 1, 1, 0, 1, 0, 1, 0, 1
2098, 1091, '1', 0.00554, 0.02443, 0.01137, 187, 187, 187, 0, 0, 0, 0, 1, 1, 0, 1, 1, 0, 1, 0, 1, 0, 1
2022, 2001, '1', 0.00839, 0.03697, 0.01721, 187, 187, 187, 0, 0, 0, 0, 1, 1, 0, 1, 1, 0, 1, 0, 1, 0, 1
2027, 2001, '1', 0.00955, 0.04062, 0.02032, 187, 187, 187, 0, 0, 0, 0, 1, 1, 0, 1, 1, 0, 1, 0, 1, 0, 1
2021, 2002, '1', 0.00097, 0.01175, 0.78032, 2295, 2295, 2295, 0, 0, 0, 0, 1, 1, 0, 1, 1, 0, 1, 0, 1, 0, 1
2002, 2101, '1', 0.00031, 0.0037, 0.24573, 2020, 2020, 2020, 0, 0, 0, 0, 1, 1, 0, 1, 1, 0, 1, 0, 1, 0, 1
2038, 2003, '1', 0.00353, 0.02067, 0.01032, 251, 251, 251, 0, 0, 0, 0, 1, 1, 0, 1, 1, 0, 1, 0, 1, 0, 1
2003, 2047, '1', 0.0013, 0.0099, 0.0052, 310, 310, 310, 0, 0, 0, 0, 1, 1, 0, 1, 1, 0, 1, 0, 1, 0, 1
2007, 2114, '1', 0.00888, 0.05207, 0.026, 251, 251, 251, 0, 0, 0, 0, 1, 1, 0, 1, 1, 0, 1, 0, 1, 0, 1
2007, 2122, '1', 0.00861, 0.03661, 0.01831, 187, 187, 187, 0, 0, 0, 0, 1, 1, 0, 1, 1, 0, 1, 0, 1, 0, 1
2014, 2008, '1', 0.02253, 0.09931, 0.04623, 187, 187, 187, 0, 0, 0, 0, 1, 1, 0, 1, 1, 0, 1, 0, 1, 0, 1
2008, 2052, '1', 0.01877, 0.08271, 0.0385, 187, 187, 187, 0, 0, 0, 0, 1, 1, 0, 1, 1, 0, 1, 0, 1, 0, 1
2009, 2049, '1', 0.01224, 0.07176, 0.03583, 251, 251, 251, 0, 0, 0, 0, 1, 1, 0, 1, 1, 0, 1, 0, 1, 0, 1
2009, 2082, '1', 0.00735, 0.03126, 0.01563, 187, 187, 187, 0, 0, 0, 0, 1, 1, 0, 1, 1, 0, 1, 0, 1, 0, 1
2109, 2009, '1', 0.00725, 0.03084, 0.01542, 250, 250, 250, 0, 0, 0, 0, 1, 1, 0, 1, 1, 0, 1, 0, 1, 0, 1
2061, 2010, '1', 0.02439, 0.10748, 0.05003, 187, 187, 187, 0, 0, 0, 0, 1, 1, 0, 1, 1, 0, 1, 0, 1, 0, 1
2010, 2079, '1', 0.02061, 0.09083, 0.04228, 187, 187, 187, 0, 0, 0, 0, 1, 1, 0, 1, 1, 0, 1, 0, 1, 0, 1
2010, 2091, '1', 0.02461, 0.10467, 0.05235, 187, 187, 187, 0, 0, 0, 0, 1, 1, 0, 1, 1, 0, 1, 0, 1, 0, 1
2127, 2011, '1', 0.00108, 0.01307, 0.86827, 2020, 2020, 2020, 0, 0, 0, 0, 1, 1, 0, 1, 1, 0, 1, 0, 1, 0, 1
2012, 2041, '1', 0.01245, 0.05297, 0.02649, 187, 187, 187, 0, 0, 0, 0, 1, 1, 0, 1, 1, 0, 1, 0, 1, 0, 1
2012, 2052, '1', 0.02008, 0.08851, 0.0412, 187, 187, 187, 0, 0, 0, 0, 1, 1, 0, 1, 1, 0, 1, 0, 1, 0, 1
2093, 2012, '1', 0.01029, 0.04536, 0.02111, 187, 187, 187, 0, 0, 0, 0, 1, 1, 0, 1, 1, 0, 1, 0, 1, 0, 1
2012, 2123, '1', 0.00995, 0.0423, 0.02115, 251, 251, 251, 0, 0, 0, 0, 1, 1, 0, 1, 1, 0, 1, 0, 1, 0, 1
...